Program Version,EnergyPlus, Version 25.1.0-68a4a7c774, YMD=2025.10.22 12:58
! This file shows details about the branches, nodes, and other
! elements of the flow connections.
! This file is intended for use in "debugging" potential problems
! that may also be detected by the program, but may be more easily
! identified by "eye".
! This file is also intended to support software which draws a
! schematic diagram of the HVAC system.
! ===============================================================
! #Nodes,<Number of Unique Nodes>
 #Nodes,163
! <Node>,<NodeNumber>,<Node Name>,<Node Fluid Type>,<# Times Node Referenced After Definition>
 Node,1,PACU_VAV_BOT_OAINLET NODE,Air,3
 Node,2,CORE_BOTTOM VAV BOX OUTLET NODE,Air,4
 Node,3,PERIMETER_BOT_ZN_1 VAV BOX OUTLET NODE,Air,4
 Node,4,HPWH OUTLET NODE INTO ZONE,Air,3
 Node,5,PERIMETER_BOT_ZN_2 VAV BOX OUTLET NODE,Air,4
 Node,6,PERIMETER_BOT_ZN_3 VAV BOX OUTLET NODE,Air,4
 Node,7,PERIMETER_BOT_ZN_4 VAV BOX OUTLET NODE,Air,4
 Node,8,PACU_VAV_MID_OAINLET NODE,Air,3
 Node,9,CORE_MID VAV BOX OUTLET NODE,Air,4
 Node,10,PERIMETER_MID_ZN_1 VAV BOX OUTLET NODE,Air,4
 Node,11,PERIMETER_MID_ZN_2 VAV BOX OUTLET NODE,Air,4
 Node,12,PERIMETER_MID_ZN_3 VAV BOX OUTLET NODE,Air,4
 Node,13,PERIMETER_MID_ZN_4 VAV BOX OUTLET NODE,Air,4
 Node,14,PACU_VAV_TOP_OAINLET NODE,Air,3
 Node,15,CORE_TOP VAV BOX OUTLET NODE,Air,4
 Node,16,PERIMETER_TOP_ZN_1 VAV BOX OUTLET NODE,Air,4
 Node,17,PERIMETER_TOP_ZN_2 VAV BOX OUTLET NODE,Air,4
 Node,18,PERIMETER_TOP_ZN_3 VAV BOX OUTLET NODE,Air,4
 Node,19,PERIMETER_TOP_ZN_4 VAV BOX OUTLET NODE,Air,4
 Node,20,PACU_VAV_BOT SUPPLY EQUIPMENT INLET NODE,Air,3
 Node,21,PACU_VAV_BOT_OA-PACU_VAV_BOT_COOLCNODE,Air,6
 Node,22,PACU_VAV_BOT_COOLC-PACU_VAV_BOT_HEATCNODE,Air,6
 Node,23,PACU_VAV_BOT_HEATC-PACU_VAV_BOT FANNODE,Air,8
 Node,24,PACU_VAV_BOT SUPPLY EQUIPMENT OUTLET NODE,Air,9
 Node,25,PACU_VAV_MID SUPPLY EQUIPMENT INLET NODE,Air,3
 Node,26,PACU_VAV_MID_OA-PACU_VAV_MID_COOLCNODE,Air,6
 Node,27,PACU_VAV_MID_COOLC-PACU_VAV_MID_HEATCNODE,Air,6
 Node,28,PACU_VAV_MID_HEATC-PACU_VAV_MID FANNODE,Air,8
 Node,29,PACU_VAV_MID SUPPLY EQUIPMENT OUTLET NODE,Air,9
 Node,30,PACU_VAV_TOP SUPPLY EQUIPMENT INLET NODE,Air,3
 Node,31,PACU_VAV_TOP_OA-PACU_VAV_TOP_COOLCNODE,Air,6
 Node,32,PACU_VAV_TOP_COOLC-PACU_VAV_TOP_HEATCNODE,Air,6
 Node,33,PACU_VAV_TOP_HEATC-PACU_VAV_TOP FANNODE,Air,8
 Node,34,PACU_VAV_TOP SUPPLY EQUIPMENT OUTLET NODE,Air,9
 Node,35,SWHSYS1 SUPPLY INLET NODE,Water,2
 Node,36,SWHSYS1 PUMP-WATER HEATERNODEVIACONNECTOR,Water,1
 Node,37,SWHSYS1 PUMP-WATER HEATERNODE,Water,2
 Node,38,SWHSYS1 SUPPLY EQUIPMENT OUTLET NODE,Water,2
 Node,39,SWHSYS1 SUPPLY EQUIP BYPASS INLET NODE,Water,1
 Node,40,SWHSYS1 SUPPLY EQUIP BYPASS OUTLET NODE,Water,1
 Node,41,SWHSYS1 SUPPLY MIXER-SWHSYS1 SUPPLY OUTLET PIPE,Water,1
 Node,42,SWHSYS1 SUPPLY OUTLET NODE,Water,4
 Node,43,SWHSYS1 DEMAND INLET NODE,Water,2
 Node,44,SWHSYS1 DEMAND INLET PIPE-SWHSYS1 DEMAND MIXER,Water,1
 Node,45,SWHSYS1 DEMAND BYPASS PIPE INLET NODE,Water,1
 Node,46,SWHSYS1 DEMAND BYPASS PIPE OUTLET NODE,Water,1
 Node,47,SWHSYS1 DEMAND MIXER-SWHSYS1 DEMAND OUTLET PIPE,Water,1
 Node,48,SWHSYS1 DEMAND OUTLET NODE,Water,2
 Node,49,CORE_BOTTOM SUB CAT WATER INLET NODE,Water,1
 Node,50,CORE_BOTTOM SUB CAT WATER OUTLET NODE,Water,1
 Node,51,CORE_MID SUB CAT WATER INLET NODE,Water,1
 Node,52,CORE_MID SUB CAT WATER OUTLET NODE,Water,1
 Node,53,CORE_TOP SUB CAT WATER INLET NODE,Water,1
 Node,54,CORE_TOP SUB CAT WATER OUTLET NODE,Water,1
 Node,55,PERIMETER_TOP_ZN_3 SUB CAT WATER INLET NODE,Water,1
 Node,56,PERIMETER_TOP_ZN_3 SUB CAT WATER OUTLET NODE,Water,1
 Node,57,PERIMETER_TOP_ZN_2 SUB CAT WATER INLET NODE,Water,1
 Node,58,PERIMETER_TOP_ZN_2 SUB CAT WATER OUTLET NODE,Water,1
 Node,59,PERIMETER_TOP_ZN_1 SUB CAT WATER INLET NODE,Water,1
 Node,60,PERIMETER_TOP_ZN_1 SUB CAT WATER OUTLET NODE,Water,1
 Node,61,PERIMETER_TOP_ZN_4 SUB CAT WATER INLET NODE,Water,1
 Node,62,PERIMETER_TOP_ZN_4 SUB CAT WATER OUTLET NODE,Water,1
 Node,63,PERIMETER_BOT_ZN_3 SUB CAT WATER INLET NODE,Water,1
 Node,64,PERIMETER_BOT_ZN_3 SUB CAT WATER OUTLET NODE,Water,1
 Node,65,PERIMETER_BOT_ZN_2 SUB CAT WATER INLET NODE,Water,1
 Node,66,PERIMETER_BOT_ZN_2 SUB CAT WATER OUTLET NODE,Water,1
 Node,67,PERIMETER_BOT_ZN_1 SUB CAT WATER INLET NODE,Water,1
 Node,68,PERIMETER_BOT_ZN_1 SUB CAT WATER OUTLET NODE,Water,1
 Node,69,PERIMETER_BOT_ZN_4 SUB CAT WATER INLET NODE,Water,1
 Node,70,PERIMETER_BOT_ZN_4 SUB CAT WATER OUTLET NODE,Water,1
 Node,71,PERIMETER_MID_ZN_3 SUB CAT WATER INLET NODE,Water,1
 Node,72,PERIMETER_MID_ZN_3 SUB CAT WATER OUTLET NODE,Water,1
 Node,73,PERIMETER_MID_ZN_2 SUB CAT WATER INLET NODE,Water,1
 Node,74,PERIMETER_MID_ZN_2 SUB CAT WATER OUTLET NODE,Water,1
 Node,75,PERIMETER_MID_ZN_1 SUB CAT WATER INLET NODE,Water,1
 Node,76,PERIMETER_MID_ZN_1 SUB CAT WATER OUTLET NODE,Water,1
 Node,77,PERIMETER_MID_ZN_4 SUB CAT WATER INLET NODE,Water,1
 Node,78,PERIMETER_MID_ZN_4 SUB CAT WATER OUTLET NODE,Water,1
 Node,79,CORE_BOTTOM AIR NODE,Air,0
 Node,80,CORE_BOTTOM RETURN AIR NODE,Air,1
 Node,81,PERIMETER_BOT_ZN_1 AIR NODE,Air,0
 Node,82,HPWH_OUTLET_EXHAUST NODE,Air,2
 Node,83,PERIMETER_BOT_ZN_1 RETURN AIR NODE,Air,1
 Node,84,PERIMETER_BOT_ZN_2 AIR NODE,Air,0
 Node,85,PERIMETER_BOT_ZN_2 RETURN AIR NODE,Air,1
 Node,86,PERIMETER_BOT_ZN_3 AIR NODE,Air,0
 Node,87,PERIMETER_BOT_ZN_3 RETURN AIR NODE,Air,1
 Node,88,PERIMETER_BOT_ZN_4 AIR NODE,Air,0
 Node,89,PERIMETER_BOT_ZN_4 RETURN AIR NODE,Air,1
 Node,90,CORE_MID AIR NODE,Air,0
 Node,91,CORE_MID RETURN AIR NODE,Air,1
 Node,92,PERIMETER_MID_ZN_1 AIR NODE,Air,0
 Node,93,PERIMETER_MID_ZN_1 RETURN AIR NODE,Air,1
 Node,94,PERIMETER_MID_ZN_2 AIR NODE,Air,0
 Node,95,PERIMETER_MID_ZN_2 RETURN AIR NODE,Air,1
 Node,96,PERIMETER_MID_ZN_3 AIR NODE,Air,0
 Node,97,PERIMETER_MID_ZN_3 RETURN AIR NODE,Air,1
 Node,98,PERIMETER_MID_ZN_4 AIR NODE,Air,0
 Node,99,PERIMETER_MID_ZN_4 RETURN AIR NODE,Air,1
 Node,100,CORE_TOP AIR NODE,Air,0
 Node,101,CORE_TOP RETURN AIR NODE,Air,1
 Node,102,PERIMETER_TOP_ZN_1 AIR NODE,Air,0
 Node,103,PERIMETER_TOP_ZN_1 RETURN AIR NODE,Air,1
 Node,104,PERIMETER_TOP_ZN_2 AIR NODE,Air,0
 Node,105,PERIMETER_TOP_ZN_2 RETURN AIR NODE,Air,1
 Node,106,PERIMETER_TOP_ZN_3 AIR NODE,Air,0
 Node,107,PERIMETER_TOP_ZN_3 RETURN AIR NODE,Air,1
 Node,108,PERIMETER_TOP_ZN_4 AIR NODE,Air,0
 Node,109,PERIMETER_TOP_ZN_4 RETURN AIR NODE,Air,1
 Node,110,PACU_VAV_BOT ZONE EQUIPMENT INLET NODE,Air,2
 Node,111,PACU_VAV_MID ZONE EQUIPMENT INLET NODE,Air,2
 Node,112,PACU_VAV_TOP ZONE EQUIPMENT INLET NODE,Air,2
 Node,113,PACU_VAV_BOT ZONE EQUIPMENT OUTLET NODE,Air,2
 Node,114,PACU_VAV_MID ZONE EQUIPMENT OUTLET NODE,Air,2
 Node,115,PACU_VAV_TOP ZONE EQUIPMENT OUTLET NODE,Air,2
 Node,116,SWHSYS1 HPWH WATER INLET,Water,2
 Node,117,SWHSYS1 HPWH WATER OUTLET,Water,2
 Node,118,SWHSYS1 HPWH FAN INLET,Air,1
 Node,119,PACU_VAV_BOT_COOLC COND OA NODE,Air,0
 Node,120,PACU_VAV_BOT_COOLCOA REF NODE,Air,0
 Node,121,PACU_VAV_MID_COOLC COND OA NODE,Air,0
 Node,122,PACU_VAV_MID_COOLCOA REF NODE,Air,0
 Node,123,PACU_VAV_TOP_COOLC COND OA NODE,Air,0
 Node,124,PACU_VAV_TOP_COOLCOA REF NODE,Air,0
 Node,125,CORE_BOTTOM VAV BOX INLET NODE,Air,1
 Node,126,PERIMETER_BOT_ZN_1 VAV BOX INLET NODE,Air,1
 Node,127,PERIMETER_BOT_ZN_2 VAV BOX INLET NODE,Air,1
 Node,128,PERIMETER_BOT_ZN_3 VAV BOX INLET NODE,Air,1
 Node,129,PERIMETER_BOT_ZN_4 VAV BOX INLET NODE,Air,1
 Node,130,CORE_MID VAV BOX INLET NODE,Air,1
 Node,131,PERIMETER_MID_ZN_1 VAV BOX INLET NODE,Air,1
 Node,132,PERIMETER_MID_ZN_2 VAV BOX INLET NODE,Air,1
 Node,133,PERIMETER_MID_ZN_3 VAV BOX INLET NODE,Air,1
 Node,134,PERIMETER_MID_ZN_4 VAV BOX INLET NODE,Air,1
 Node,135,CORE_TOP VAV BOX INLET NODE,Air,1
 Node,136,PERIMETER_TOP_ZN_1 VAV BOX INLET NODE,Air,1
 Node,137,PERIMETER_TOP_ZN_2 VAV BOX INLET NODE,Air,1
 Node,138,PERIMETER_TOP_ZN_3 VAV BOX INLET NODE,Air,1
 Node,139,PERIMETER_TOP_ZN_4 VAV BOX INLET NODE,Air,1
 Node,140,CORE_BOTTOM VAV BOX DAMPER NODE,Air,1
 Node,141,PERIMETER_BOT_ZN_1 VAV BOX DAMPER NODE,Air,1
 Node,142,PERIMETER_BOT_ZN_2 VAV BOX DAMPER NODE,Air,1
 Node,143,PERIMETER_BOT_ZN_3 VAV BOX DAMPER NODE,Air,1
 Node,144,PERIMETER_BOT_ZN_4 VAV BOX DAMPER NODE,Air,1
 Node,145,CORE_MID VAV BOX DAMPER NODE,Air,1
 Node,146,PERIMETER_MID_ZN_1 VAV BOX DAMPER NODE,Air,1
 Node,147,PERIMETER_MID_ZN_2 VAV BOX DAMPER NODE,Air,1
 Node,148,PERIMETER_MID_ZN_3 VAV BOX DAMPER NODE,Air,1
 Node,149,PERIMETER_MID_ZN_4 VAV BOX DAMPER NODE,Air,1
 Node,150,CORE_TOP VAV BOX DAMPER NODE,Air,1
 Node,151,PERIMETER_TOP_ZN_1 VAV BOX DAMPER NODE,Air,1
 Node,152,PERIMETER_TOP_ZN_2 VAV BOX DAMPER NODE,Air,1
 Node,153,PERIMETER_TOP_ZN_3 VAV BOX DAMPER NODE,Air,1
 Node,154,PERIMETER_TOP_ZN_4 VAV BOX DAMPER NODE,Air,1
 Node,155,FIRSTFLOOR_PLENUM_NODE,Air,0
 Node,156,FIRSTFLOOR_PLENUM OUTLET NODE,Air,1
 Node,157,MIDFLOOR_PLENUM_NODE,Air,0
 Node,158,MIDFLOOR_PLENUM OUTLET NODE,Air,1
 Node,159,TOPFLOOR_PLENUM_NODE,Air,0
 Node,160,TOPFLOOR_PLENUM OUTLET NODE,Air,1
 Node,161,PACU_VAV_BOT_OARELIEF NODE,Air,1
 Node,162,PACU_VAV_MID_OARELIEF NODE,Air,1
 Node,163,PACU_VAV_TOP_OARELIEF NODE,Air,1
! ===============================================================
! Suspicious nodes have 0 references.  It is normal for some nodes, however.
! Listing nodes with 0 references (culled from previous list):
! <Suspicious Node>,<NodeNumber>,<Node Name>,<Node Fluid Type>,<# Times Node Referenced After Definition>
 Suspicious Node,79,CORE_BOTTOM AIR NODE,Air,0
 Suspicious Node,81,PERIMETER_BOT_ZN_1 AIR NODE,Air,0
 Suspicious Node,84,PERIMETER_BOT_ZN_2 AIR NODE,Air,0
 Suspicious Node,86,PERIMETER_BOT_ZN_3 AIR NODE,Air,0
 Suspicious Node,88,PERIMETER_BOT_ZN_4 AIR NODE,Air,0
 Suspicious Node,90,CORE_MID AIR NODE,Air,0
 Suspicious Node,92,PERIMETER_MID_ZN_1 AIR NODE,Air,0
 Suspicious Node,94,PERIMETER_MID_ZN_2 AIR NODE,Air,0
 Suspicious Node,96,PERIMETER_MID_ZN_3 AIR NODE,Air,0
 Suspicious Node,98,PERIMETER_MID_ZN_4 AIR NODE,Air,0
 Suspicious Node,100,CORE_TOP AIR NODE,Air,0
 Suspicious Node,102,PERIMETER_TOP_ZN_1 AIR NODE,Air,0
 Suspicious Node,104,PERIMETER_TOP_ZN_2 AIR NODE,Air,0
 Suspicious Node,106,PERIMETER_TOP_ZN_3 AIR NODE,Air,0
 Suspicious Node,108,PERIMETER_TOP_ZN_4 AIR NODE,Air,0
 Suspicious Node,119,PACU_VAV_BOT_COOLC COND OA NODE,Air,0
 Suspicious Node,120,PACU_VAV_BOT_COOLCOA REF NODE,Air,0
 Suspicious Node,121,PACU_VAV_MID_COOLC COND OA NODE,Air,0
 Suspicious Node,122,PACU_VAV_MID_COOLCOA REF NODE,Air,0
 Suspicious Node,123,PACU_VAV_TOP_COOLC COND OA NODE,Air,0
 Suspicious Node,124,PACU_VAV_TOP_COOLCOA REF NODE,Air,0
 Suspicious Node,155,FIRSTFLOOR_PLENUM_NODE,Air,0
 Suspicious Node,157,MIDFLOOR_PLENUM_NODE,Air,0
 Suspicious Node,159,TOPFLOOR_PLENUM_NODE,Air,0
! ===============================================================
! <#Branch Lists>,<Number of Branch Lists>
 #Branch Lists,5
! <Branch List>,<Branch List Count>,<Branch List Name>,<Loop Name>,<Loop Type>,<Number of Branches>
! <Branch>,<Branch Count>,<Branch Name>,<Loop Name>,<Loop Type>,<Branch Inlet Node Name>,<Branch Outlet Node Name>
 Branch List,1,PACU_VAV_BOT AIR LOOP BRANCHES,PACU_VAV_BOT,Air,1
   Branch,1,PACU_VAV_BOT AIR LOOP MAIN BRANCH,PACU_VAV_BOT,Air,PACU_VAV_BOT SUPPLY EQUIPMENT INLET NODE,PACU_VAV_BOT SUPPLY EQUIPMENT OUTLET NODE
 Branch List,2,PACU_VAV_MID AIR LOOP BRANCHES,PACU_VAV_MID,Air,1
   Branch,1,PACU_VAV_MID AIR LOOP MAIN BRANCH,PACU_VAV_MID,Air,PACU_VAV_MID SUPPLY EQUIPMENT INLET NODE,PACU_VAV_MID SUPPLY EQUIPMENT OUTLET NODE
 Branch List,3,PACU_VAV_TOP AIR LOOP BRANCHES,PACU_VAV_TOP,Air,1
   Branch,1,PACU_VAV_TOP AIR LOOP MAIN BRANCH,PACU_VAV_TOP,Air,PACU_VAV_TOP SUPPLY EQUIPMENT INLET NODE,PACU_VAV_TOP SUPPLY EQUIPMENT OUTLET NODE
 Branch List,4,SWHSYS1 SUPPLY BRANCHES,SWHSYS1,Plant Supply,4
   Branch,1,SWHSYS1 SUPPLY INLET BRANCH,SWHSYS1,Plant Supply,SWHSYS1 SUPPLY INLET NODE,SWHSYS1 PUMP-WATER HEATERNODEVIACONNECTOR
   Branch,2,SWHSYS1 SUPPLY EQUIPMENT BRANCH,SWHSYS1,Plant Supply,SWHSYS1 PUMP-WATER HEATERNODE,SWHSYS1 SUPPLY EQUIPMENT OUTLET NODE
   Branch,3,SWHSYS1 SUPPLY EQUIPMENT BYPASS BRANCH,SWHSYS1,Plant Supply,SWHSYS1 SUPPLY EQUIP BYPASS INLET NODE,SWHSYS1 SUPPLY EQUIP BYPASS OUTLET NODE
   Branch,4,SWHSYS1 SUPPLY OUTLET BRANCH,SWHSYS1,Plant Supply,SWHSYS1 SUPPLY MIXER-SWHSYS1 SUPPLY OUTLET PIPE,SWHSYS1 SUPPLY OUTLET NODE
 Branch List,5,SWHSYS1 DEMAND BRANCHES,SWHSYS1,Plant Demand,18
   Branch,1,SWHSYS1 DEMAND INLET BRANCH,SWHSYS1,Plant Demand,SWHSYS1 DEMAND INLET NODE,SWHSYS1 DEMAND INLET PIPE-SWHSYS1 DEMAND MIXER
   Branch,2,SWH DEMAND LOAD BRANCH CORE_BOTTOM SUB CAT,SWHSYS1,Plant Demand,CORE_BOTTOM SUB CAT WATER INLET NODE,CORE_BOTTOM SUB CAT WATER OUTLET NODE
   Branch,3,SWH DEMAND LOAD BRANCH CORE_MID SUB CAT,SWHSYS1,Plant Demand,CORE_MID SUB CAT WATER INLET NODE,CORE_MID SUB CAT WATER OUTLET NODE
   Branch,4,SWH DEMAND LOAD BRANCH CORE_TOP SUB CAT,SWHSYS1,Plant Demand,CORE_TOP SUB CAT WATER INLET NODE,CORE_TOP SUB CAT WATER OUTLET NODE
   Branch,5,SWH DEMAND LOAD BRANCH PERIMETER_TOP_ZN_3 SUB CAT,SWHSYS1,Plant Demand,PERIMETER_TOP_ZN_3 SUB CAT WATER INLET NODE,PERIMETER_TOP_ZN_3 SUB CAT WATER OUTLET NODE
   Branch,6,SWH DEMAND LOAD BRANCH PERIMETER_TOP_ZN_2 SUB CAT,SWHSYS1,Plant Demand,PERIMETER_TOP_ZN_2 SUB CAT WATER INLET NODE,PERIMETER_TOP_ZN_2 SUB CAT WATER OUTLET NODE
   Branch,7,SWH DEMAND LOAD BRANCH PERIMETER_TOP_ZN_1 SUB CAT,SWHSYS1,Plant Demand,PERIMETER_TOP_ZN_1 SUB CAT WATER INLET NODE,PERIMETER_TOP_ZN_1 SUB CAT WATER OUTLET NODE
   Branch,8,SWH DEMAND LOAD BRANCH PERIMETER_TOP_ZN_4 SUB CAT,SWHSYS1,Plant Demand,PERIMETER_TOP_ZN_4 SUB CAT WATER INLET NODE,PERIMETER_TOP_ZN_4 SUB CAT WATER OUTLET NODE
   Branch,9,SWH DEMAND LOAD BRANCH PERIMETER_BOT_ZN_3 SUB CAT,SWHSYS1,Plant Demand,PERIMETER_BOT_ZN_3 SUB CAT WATER INLET NODE,PERIMETER_BOT_ZN_3 SUB CAT WATER OUTLET NODE
   Branch,10,SWH DEMAND LOAD BRANCH PERIMETER_BOT_ZN_2 SUB CAT,SWHSYS1,Plant Demand,PERIMETER_BOT_ZN_2 SUB CAT WATER INLET NODE,PERIMETER_BOT_ZN_2 SUB CAT WATER OUTLET NODE
   Branch,11,SWH DEMAND LOAD BRANCH PERIMETER_BOT_ZN_1 SUB CAT,SWHSYS1,Plant Demand,PERIMETER_BOT_ZN_1 SUB CAT WATER INLET NODE,PERIMETER_BOT_ZN_1 SUB CAT WATER OUTLET NODE
   Branch,12,SWH DEMAND LOAD BRANCH PERIMETER_BOT_ZN_4 SUB CAT,SWHSYS1,Plant Demand,PERIMETER_BOT_ZN_4 SUB CAT WATER INLET NODE,PERIMETER_BOT_ZN_4 SUB CAT WATER OUTLET NODE
   Branch,13,SWH DEMAND LOAD BRANCH PERIMETER_MID_ZN_3 SUB CAT,SWHSYS1,Plant Demand,PERIMETER_MID_ZN_3 SUB CAT WATER INLET NODE,PERIMETER_MID_ZN_3 SUB CAT WATER OUTLET NODE
   Branch,14,SWH DEMAND LOAD BRANCH PERIMETER_MID_ZN_2 SUB CAT,SWHSYS1,Plant Demand,PERIMETER_MID_ZN_2 SUB CAT WATER INLET NODE,PERIMETER_MID_ZN_2 SUB CAT WATER OUTLET NODE
   Branch,15,SWH DEMAND LOAD BRANCH PERIMETER_MID_ZN_1 SUB CAT,SWHSYS1,Plant Demand,PERIMETER_MID_ZN_1 SUB CAT WATER INLET NODE,PERIMETER_MID_ZN_1 SUB CAT WATER OUTLET NODE
   Branch,16,SWH DEMAND LOAD BRANCH PERIMETER_MID_ZN_4 SUB CAT,SWHSYS1,Plant Demand,PERIMETER_MID_ZN_4 SUB CAT WATER INLET NODE,PERIMETER_MID_ZN_4 SUB CAT WATER OUTLET NODE
   Branch,17,SWHSYS1 DEMAND BYPASS BRANCH,SWHSYS1,Plant Demand,SWHSYS1 DEMAND BYPASS PIPE INLET NODE,SWHSYS1 DEMAND BYPASS PIPE OUTLET NODE
   Branch,18,SWHSYS1 DEMAND OUTLET BRANCH,SWHSYS1,Plant Demand,SWHSYS1 DEMAND MIXER-SWHSYS1 DEMAND OUTLET PIPE,SWHSYS1 DEMAND OUTLET NODE
! ===============================================================
! <#Supply Air Paths>,<Number of Supply Air Paths>
 #Supply Air Paths,3
! <Supply Air Path>,<Supply Air Path Count>,<Supply Air Path Name>,<AirLoopHVAC Name>
! <#Components on Supply Air Path>,<Number of Components>
! <Supply Air Path Component>,<Component Count>,<Component Type>,<Component Name>,<AirLoopHVAC Name>
! <#Outlet Nodes on Supply Air Path Component>,<Number of Nodes>
! <Supply Air Path Component Nodes>,<Node Count>,<Component Type>,<Component Name>,<Inlet Node Name>,<Outlet Node Name>,<AirLoopHVAC Name>
 Supply Air Path,1,PACU_VAV_BOT,PACU_VAV_BOT
   #Components on Supply Air Path,1
   Supply Air Path Component,1,AIRLOOPHVAC:ZONESPLITTER,PACU_VAV_BOT SUPPLY AIR SPLITTER,PACU_VAV_BOT
     #Outlet Nodes on Supply Air Path Component,5
     Supply Air Path Component Nodes,1,AIRLOOPHVAC:ZONESPLITTER,PACU_VAV_BOT SUPPLY AIR SPLITTER,PACU_VAV_BOT ZONE EQUIPMENT INLET NODE,CORE_BOTTOM VAV BOX INLET NODE,PACU_VAV_BOT
     Supply Air Path Component Nodes,2,AIRLOOPHVAC:ZONESPLITTER,PACU_VAV_BOT SUPPLY AIR SPLITTER,PACU_VAV_BOT ZONE EQUIPMENT INLET NODE,PERIMETER_BOT_ZN_1 VAV BOX INLET NODE,PACU_VAV_BOT
     Supply Air Path Component Nodes,3,AIRLOOPHVAC:ZONESPLITTER,PACU_VAV_BOT SUPPLY AIR SPLITTER,PACU_VAV_BOT ZONE EQUIPMENT INLET NODE,PERIMETER_BOT_ZN_2 VAV BOX INLET NODE,PACU_VAV_BOT
     Supply Air Path Component Nodes,4,AIRLOOPHVAC:ZONESPLITTER,PACU_VAV_BOT SUPPLY AIR SPLITTER,PACU_VAV_BOT ZONE EQUIPMENT INLET NODE,PERIMETER_BOT_ZN_3 VAV BOX INLET NODE,PACU_VAV_BOT
     Supply Air Path Component Nodes,5,AIRLOOPHVAC:ZONESPLITTER,PACU_VAV_BOT SUPPLY AIR SPLITTER,PACU_VAV_BOT ZONE EQUIPMENT INLET NODE,PERIMETER_BOT_ZN_4 VAV BOX INLET NODE,PACU_VAV_BOT
! <#Nodes on Supply Air Path>,<Number of Nodes>
! <Supply Air Path Node>,<Node Type>,<Node Count>,<Node Name>,<AirLoopHVAC Name>
#Nodes on Supply Air Path,6
   Supply Air Path Node,Inlet Node,1,PACU_VAV_BOT ZONE EQUIPMENT INLET NODE,PACU_VAV_BOT
   Supply Air Path Node,Outlet Node,2,CORE_BOTTOM VAV BOX INLET NODE,PACU_VAV_BOT
   Supply Air Path Node,Outlet Node,3,PERIMETER_BOT_ZN_1 VAV BOX INLET NODE,PACU_VAV_BOT
   Supply Air Path Node,Outlet Node,4,PERIMETER_BOT_ZN_2 VAV BOX INLET NODE,PACU_VAV_BOT
   Supply Air Path Node,Outlet Node,5,PERIMETER_BOT_ZN_3 VAV BOX INLET NODE,PACU_VAV_BOT
   Supply Air Path Node,Outlet Node,6,PERIMETER_BOT_ZN_4 VAV BOX INLET NODE,PACU_VAV_BOT
 Supply Air Path,2,PACU_VAV_MID,PACU_VAV_MID
   #Components on Supply Air Path,1
   Supply Air Path Component,1,AIRLOOPHVAC:ZONESPLITTER,PACU_VAV_MID SUPPLY AIR SPLITTER,PACU_VAV_MID
     #Outlet Nodes on Supply Air Path Component,5
     Supply Air Path Component Nodes,1,AIRLOOPHVAC:ZONESPLITTER,PACU_VAV_MID SUPPLY AIR SPLITTER,PACU_VAV_MID ZONE EQUIPMENT INLET NODE,CORE_MID VAV BOX INLET NODE,PACU_VAV_MID
     Supply Air Path Component Nodes,2,AIRLOOPHVAC:ZONESPLITTER,PACU_VAV_MID SUPPLY AIR SPLITTER,PACU_VAV_MID ZONE EQUIPMENT INLET NODE,PERIMETER_MID_ZN_1 VAV BOX INLET NODE,PACU_VAV_MID
     Supply Air Path Component Nodes,3,AIRLOOPHVAC:ZONESPLITTER,PACU_VAV_MID SUPPLY AIR SPLITTER,PACU_VAV_MID ZONE EQUIPMENT INLET NODE,PERIMETER_MID_ZN_2 VAV BOX INLET NODE,PACU_VAV_MID
     Supply Air Path Component Nodes,4,AIRLOOPHVAC:ZONESPLITTER,PACU_VAV_MID SUPPLY AIR SPLITTER,PACU_VAV_MID ZONE EQUIPMENT INLET NODE,PERIMETER_MID_ZN_3 VAV BOX INLET NODE,PACU_VAV_MID
     Supply Air Path Component Nodes,5,AIRLOOPHVAC:ZONESPLITTER,PACU_VAV_MID SUPPLY AIR SPLITTER,PACU_VAV_MID ZONE EQUIPMENT INLET NODE,PERIMETER_MID_ZN_4 VAV BOX INLET NODE,PACU_VAV_MID
! <#Nodes on Supply Air Path>,<Number of Nodes>
! <Supply Air Path Node>,<Node Type>,<Node Count>,<Node Name>,<AirLoopHVAC Name>
#Nodes on Supply Air Path,6
   Supply Air Path Node,Inlet Node,1,PACU_VAV_MID ZONE EQUIPMENT INLET NODE,PACU_VAV_MID
   Supply Air Path Node,Outlet Node,2,CORE_MID VAV BOX INLET NODE,PACU_VAV_MID
   Supply Air Path Node,Outlet Node,3,PERIMETER_MID_ZN_1 VAV BOX INLET NODE,PACU_VAV_MID
   Supply Air Path Node,Outlet Node,4,PERIMETER_MID_ZN_2 VAV BOX INLET NODE,PACU_VAV_MID
   Supply Air Path Node,Outlet Node,5,PERIMETER_MID_ZN_3 VAV BOX INLET NODE,PACU_VAV_MID
   Supply Air Path Node,Outlet Node,6,PERIMETER_MID_ZN_4 VAV BOX INLET NODE,PACU_VAV_MID
 Supply Air Path,3,PACU_VAV_TOP,PACU_VAV_TOP
   #Components on Supply Air Path,1
   Supply Air Path Component,1,AIRLOOPHVAC:ZONESPLITTER,PACU_VAV_TOP SUPPLY AIR SPLITTER,PACU_VAV_TOP
     #Outlet Nodes on Supply Air Path Component,5
     Supply Air Path Component Nodes,1,AIRLOOPHVAC:ZONESPLITTER,PACU_VAV_TOP SUPPLY AIR SPLITTER,PACU_VAV_TOP ZONE EQUIPMENT INLET NODE,CORE_TOP VAV BOX INLET NODE,PACU_VAV_TOP
     Supply Air Path Component Nodes,2,AIRLOOPHVAC:ZONESPLITTER,PACU_VAV_TOP SUPPLY AIR SPLITTER,PACU_VAV_TOP ZONE EQUIPMENT INLET NODE,PERIMETER_TOP_ZN_1 VAV BOX INLET NODE,PACU_VAV_TOP
     Supply Air Path Component Nodes,3,AIRLOOPHVAC:ZONESPLITTER,PACU_VAV_TOP SUPPLY AIR SPLITTER,PACU_VAV_TOP ZONE EQUIPMENT INLET NODE,PERIMETER_TOP_ZN_2 VAV BOX INLET NODE,PACU_VAV_TOP
     Supply Air Path Component Nodes,4,AIRLOOPHVAC:ZONESPLITTER,PACU_VAV_TOP SUPPLY AIR SPLITTER,PACU_VAV_TOP ZONE EQUIPMENT INLET NODE,PERIMETER_TOP_ZN_3 VAV BOX INLET NODE,PACU_VAV_TOP
     Supply Air Path Component Nodes,5,AIRLOOPHVAC:ZONESPLITTER,PACU_VAV_TOP SUPPLY AIR SPLITTER,PACU_VAV_TOP ZONE EQUIPMENT INLET NODE,PERIMETER_TOP_ZN_4 VAV BOX INLET NODE,PACU_VAV_TOP
! <#Nodes on Supply Air Path>,<Number of Nodes>
! <Supply Air Path Node>,<Node Type>,<Node Count>,<Node Name>,<AirLoopHVAC Name>
#Nodes on Supply Air Path,6
   Supply Air Path Node,Inlet Node,1,PACU_VAV_TOP ZONE EQUIPMENT INLET NODE,PACU_VAV_TOP
   Supply Air Path Node,Outlet Node,2,CORE_TOP VAV BOX INLET NODE,PACU_VAV_TOP
   Supply Air Path Node,Outlet Node,3,PERIMETER_TOP_ZN_1 VAV BOX INLET NODE,PACU_VAV_TOP
   Supply Air Path Node,Outlet Node,4,PERIMETER_TOP_ZN_2 VAV BOX INLET NODE,PACU_VAV_TOP
   Supply Air Path Node,Outlet Node,5,PERIMETER_TOP_ZN_3 VAV BOX INLET NODE,PACU_VAV_TOP
   Supply Air Path Node,Outlet Node,6,PERIMETER_TOP_ZN_4 VAV BOX INLET NODE,PACU_VAV_TOP
! ===============================================================
! <#Return Air Paths>,<Number of Return Air Paths>
 #Return Air Paths,3
! <Return Air Path>,<Return Air Path Count>,<Return Air Path Name>,<AirLoopHVAC Name>
! <#Components on Return Air Path>,<Number of Components>
! <Return Air Path Component>,<Component Count>,<Component Type>,<Component Name>,<AirLoopHVAC Name>
! <#Inlet Nodes on Return Air Path Component>,<Number of Nodes>
! <Return Air Path Component Nodes>,<Node Count>,<Component Type>,<Component Name>,<Inlet Node Name>,<Outlet Node Name>,<AirLoopHVAC Name>
 Return Air Path,1,PACU_VAV_BOT RETURN AIR PATH,PACU_VAV_BOT
   #Components on Return Air Path,2
   Return Air Path Component,1,AIRLOOPHVAC:RETURNPLENUM,FIRSTFLOOR_PLENUM_RETURN,PACU_VAV_BOT
   Return Air Path Component,2,AIRLOOPHVAC:ZONEMIXER,PACU_VAV_BOT RETURN AIR MIXER,PACU_VAV_BOT
     #Inlet Nodes on Return Air Path Component,1
     Return Air Path Component Nodes,1,AIRLOOPHVAC:ZONEMIXER,PACU_VAV_BOT RETURN AIR MIXER,FIRSTFLOOR_PLENUM OUTLET NODE,PACU_VAV_BOT ZONE EQUIPMENT OUTLET NODE,PACU_VAV_BOT
! <#Nodes on Return Air Path>,<Number of Nodes>
! <Return Air Path Node>,<Node Type>,<Node Count>,<Node Name>,<AirLoopHVAC Name>
   #Nodes on Return Air Path,7
   Return Air Path Node,Outlet Node,1,PACU_VAV_BOT ZONE EQUIPMENT OUTLET NODE,PACU_VAV_BOT
   Return Air Path Node,Inlet Node,2,FIRSTFLOOR_PLENUM OUTLET NODE,PACU_VAV_BOT
   Return Air Path Node,Inlet Node,3,CORE_BOTTOM RETURN AIR NODE,PACU_VAV_BOT
   Return Air Path Node,Inlet Node,4,PERIMETER_BOT_ZN_1 RETURN AIR NODE,PACU_VAV_BOT
   Return Air Path Node,Inlet Node,5,PERIMETER_BOT_ZN_2 RETURN AIR NODE,PACU_VAV_BOT
   Return Air Path Node,Inlet Node,6,PERIMETER_BOT_ZN_3 RETURN AIR NODE,PACU_VAV_BOT
   Return Air Path Node,Inlet Node,7,PERIMETER_BOT_ZN_4 RETURN AIR NODE,PACU_VAV_BOT
 Return Air Path,2,PACU_VAV_MID RETURN AIR PATH,PACU_VAV_MID
   #Components on Return Air Path,2
   Return Air Path Component,1,AIRLOOPHVAC:RETURNPLENUM,MIDFLOOR_PLENUM_RETURN,PACU_VAV_MID
   Return Air Path Component,2,AIRLOOPHVAC:ZONEMIXER,PACU_VAV_MID RETURN AIR MIXER,PACU_VAV_MID
     #Inlet Nodes on Return Air Path Component,1
     Return Air Path Component Nodes,1,AIRLOOPHVAC:ZONEMIXER,PACU_VAV_MID RETURN AIR MIXER,MIDFLOOR_PLENUM OUTLET NODE,PACU_VAV_MID ZONE EQUIPMENT OUTLET NODE,PACU_VAV_MID
! <#Nodes on Return Air Path>,<Number of Nodes>
! <Return Air Path Node>,<Node Type>,<Node Count>,<Node Name>,<AirLoopHVAC Name>
   #Nodes on Return Air Path,7
   Return Air Path Node,Outlet Node,1,PACU_VAV_MID ZONE EQUIPMENT OUTLET NODE,PACU_VAV_MID
   Return Air Path Node,Inlet Node,2,MIDFLOOR_PLENUM OUTLET NODE,PACU_VAV_MID
   Return Air Path Node,Inlet Node,3,CORE_MID RETURN AIR NODE,PACU_VAV_MID
   Return Air Path Node,Inlet Node,4,PERIMETER_MID_ZN_1 RETURN AIR NODE,PACU_VAV_MID
   Return Air Path Node,Inlet Node,5,PERIMETER_MID_ZN_2 RETURN AIR NODE,PACU_VAV_MID
   Return Air Path Node,Inlet Node,6,PERIMETER_MID_ZN_3 RETURN AIR NODE,PACU_VAV_MID
   Return Air Path Node,Inlet Node,7,PERIMETER_MID_ZN_4 RETURN AIR NODE,PACU_VAV_MID
 Return Air Path,3,PACU_VAV_TOP RETURN AIR PATH,PACU_VAV_TOP
   #Components on Return Air Path,2
   Return Air Path Component,1,AIRLOOPHVAC:RETURNPLENUM,TOPFLOOR_PLENUM_RETURN,PACU_VAV_TOP
   Return Air Path Component,2,AIRLOOPHVAC:ZONEMIXER,PACU_VAV_TOP RETURN AIR MIXER,PACU_VAV_TOP
     #Inlet Nodes on Return Air Path Component,1
     Return Air Path Component Nodes,1,AIRLOOPHVAC:ZONEMIXER,PACU_VAV_TOP RETURN AIR MIXER,TOPFLOOR_PLENUM OUTLET NODE,PACU_VAV_TOP ZONE EQUIPMENT OUTLET NODE,PACU_VAV_TOP
! <#Nodes on Return Air Path>,<Number of Nodes>
! <Return Air Path Node>,<Node Type>,<Node Count>,<Node Name>,<AirLoopHVAC Name>
   #Nodes on Return Air Path,7
   Return Air Path Node,Outlet Node,1,PACU_VAV_TOP ZONE EQUIPMENT OUTLET NODE,PACU_VAV_TOP
   Return Air Path Node,Inlet Node,2,TOPFLOOR_PLENUM OUTLET NODE,PACU_VAV_TOP
   Return Air Path Node,Inlet Node,3,CORE_TOP RETURN AIR NODE,PACU_VAV_TOP
   Return Air Path Node,Inlet Node,4,PERIMETER_TOP_ZN_1 RETURN AIR NODE,PACU_VAV_TOP
   Return Air Path Node,Inlet Node,5,PERIMETER_TOP_ZN_2 RETURN AIR NODE,PACU_VAV_TOP
   Return Air Path Node,Inlet Node,6,PERIMETER_TOP_ZN_3 RETURN AIR NODE,PACU_VAV_TOP
   Return Air Path Node,Inlet Node,7,PERIMETER_TOP_ZN_4 RETURN AIR NODE,PACU_VAV_TOP
! ===============================================================
! #Outdoor Air Nodes,<Number of Outdoor Air Nodes>
 #Outdoor Air Nodes,9
! <Outdoor Air Node>,<NodeNumber>,<Node Name>
 Outdoor Air Node,1,PACU_VAV_BOT_OAINLET NODE
 Outdoor Air Node,8,PACU_VAV_MID_OAINLET NODE
 Outdoor Air Node,14,PACU_VAV_TOP_OAINLET NODE
 Outdoor Air Node,119,PACU_VAV_BOT_COOLC COND OA NODE
 Outdoor Air Node,120,PACU_VAV_BOT_COOLCOA REF NODE
 Outdoor Air Node,121,PACU_VAV_MID_COOLC COND OA NODE
 Outdoor Air Node,122,PACU_VAV_MID_COOLCOA REF NODE
 Outdoor Air Node,123,PACU_VAV_TOP_COOLC COND OA NODE
 Outdoor Air Node,124,PACU_VAV_TOP_COOLCOA REF NODE
! ===============================================================
! <#Component Sets>,<Number of Component Sets>
 #Component Sets,74
! <Component Set>,<Component Set Count>,<Parent Object Type>,<Parent Object Name>,<Component Type>,<Component Name>,<Inlet Node ID>,<Outlet Node ID>,<Description>
 Component Set,1,BRANCH,PACU_VAV_BOT AIR LOOP MAIN BRANCH,AIRLOOPHVAC:OUTDOORAIRSYSTEM,PACU_VAV_BOT_OA,PACU_VAV_BOT SUPPLY EQUIPMENT INLET NODE,PACU_VAV_BOT_OA-PACU_VAV_BOT_COOLCNODE,Air Nodes
 Component Set,2,BRANCH,PACU_VAV_BOT AIR LOOP MAIN BRANCH,COILSYSTEM:COOLING:DX,PACU_VAV_BOT COOLING COIL,PACU_VAV_BOT_OA-PACU_VAV_BOT_COOLCNODE,PACU_VAV_BOT_COOLC-PACU_VAV_BOT_HEATCNODE,Air Nodes
 Component Set,3,BRANCH,PACU_VAV_BOT AIR LOOP MAIN BRANCH,COIL:HEATING:FUEL,PACU_VAV_BOT HEATING COIL,PACU_VAV_BOT_COOLC-PACU_VAV_BOT_HEATCNODE,PACU_VAV_BOT_HEATC-PACU_VAV_BOT FANNODE,Air Nodes
 Component Set,4,BRANCH,PACU_VAV_BOT AIR LOOP MAIN BRANCH,FAN:VARIABLEVOLUME,PACU_VAV_BOT FAN,PACU_VAV_BOT_HEATC-PACU_VAV_BOT FANNODE,PACU_VAV_BOT SUPPLY EQUIPMENT OUTLET NODE,Air Nodes
 Component Set,5,BRANCH,PACU_VAV_MID AIR LOOP MAIN BRANCH,AIRLOOPHVAC:OUTDOORAIRSYSTEM,PACU_VAV_MID_OA,PACU_VAV_MID SUPPLY EQUIPMENT INLET NODE,PACU_VAV_MID_OA-PACU_VAV_MID_COOLCNODE,Air Nodes
 Component Set,6,BRANCH,PACU_VAV_MID AIR LOOP MAIN BRANCH,COILSYSTEM:COOLING:DX,PACU_VAV_MID COOLING COIL,PACU_VAV_MID_OA-PACU_VAV_MID_COOLCNODE,PACU_VAV_MID_COOLC-PACU_VAV_MID_HEATCNODE,Air Nodes
 Component Set,7,BRANCH,PACU_VAV_MID AIR LOOP MAIN BRANCH,COIL:HEATING:FUEL,PACU_VAV_MID HEATING COIL,PACU_VAV_MID_COOLC-PACU_VAV_MID_HEATCNODE,PACU_VAV_MID_HEATC-PACU_VAV_MID FANNODE,Air Nodes
 Component Set,8,BRANCH,PACU_VAV_MID AIR LOOP MAIN BRANCH,FAN:VARIABLEVOLUME,PACU_VAV_MID FAN,PACU_VAV_MID_HEATC-PACU_VAV_MID FANNODE,PACU_VAV_MID SUPPLY EQUIPMENT OUTLET NODE,Air Nodes
 Component Set,9,BRANCH,PACU_VAV_TOP AIR LOOP MAIN BRANCH,AIRLOOPHVAC:OUTDOORAIRSYSTEM,PACU_VAV_TOP_OA,PACU_VAV_TOP SUPPLY EQUIPMENT INLET NODE,PACU_VAV_TOP_OA-PACU_VAV_TOP_COOLCNODE,Air Nodes
 Component Set,10,BRANCH,PACU_VAV_TOP AIR LOOP MAIN BRANCH,COILSYSTEM:COOLING:DX,PACU_VAV_TOP COOLING COIL,PACU_VAV_TOP_OA-PACU_VAV_TOP_COOLCNODE,PACU_VAV_TOP_COOLC-PACU_VAV_TOP_HEATCNODE,Air Nodes
 Component Set,11,BRANCH,PACU_VAV_TOP AIR LOOP MAIN BRANCH,COIL:HEATING:FUEL,PACU_VAV_TOP HEATING COIL,PACU_VAV_TOP_COOLC-PACU_VAV_TOP_HEATCNODE,PACU_VAV_TOP_HEATC-PACU_VAV_TOP FANNODE,Air Nodes
 Component Set,12,BRANCH,PACU_VAV_TOP AIR LOOP MAIN BRANCH,FAN:VARIABLEVOLUME,PACU_VAV_TOP FAN,PACU_VAV_TOP_HEATC-PACU_VAV_TOP FANNODE,PACU_VAV_TOP SUPPLY EQUIPMENT OUTLET NODE,Air Nodes
 Component Set,13,BRANCH,SWHSYS1 SUPPLY INLET BRANCH,PUMP:CONSTANTSPEED,SWHSYS1 PUMP,SWHSYS1 SUPPLY INLET NODE,SWHSYS1 PUMP-WATER HEATERNODEVIACONNECTOR,Water Nodes
 Component Set,14,BRANCH,SWHSYS1 SUPPLY EQUIPMENT BRANCH,WATERHEATER:HEATPUMP:PUMPEDCONDENSER,SWHSYS1 HPWH,SWHSYS1 PUMP-WATER HEATERNODE,SWHSYS1 SUPPLY EQUIPMENT OUTLET NODE,Water Nodes
 Component Set,15,BRANCH,SWHSYS1 SUPPLY EQUIPMENT BYPASS BRANCH,PIPE:ADIABATIC,SWHSYS1 SUPPLY EQUIPMENT BYPASS PIPE,SWHSYS1 SUPPLY EQUIP BYPASS INLET NODE,SWHSYS1 SUPPLY EQUIP BYPASS OUTLET NODE,Pipe Nodes
 Component Set,16,BRANCH,SWHSYS1 SUPPLY OUTLET BRANCH,PIPE:ADIABATIC,SWHSYS1 SUPPLY OUTLET PIPE,SWHSYS1 SUPPLY MIXER-SWHSYS1 SUPPLY OUTLET PIPE,SWHSYS1 SUPPLY OUTLET NODE,Pipe Nodes
 Component Set,17,BRANCH,SWHSYS1 DEMAND INLET BRANCH,PIPE:ADIABATIC,SWHSYS1 DEMAND INLET PIPE,SWHSYS1 DEMAND INLET NODE,SWHSYS1 DEMAND INLET PIPE-SWHSYS1 DEMAND MIXER,Pipe Nodes
 Component Set,18,BRANCH,SWHSYS1 DEMAND BYPASS BRANCH,PIPE:ADIABATIC,SWHSYS1 DEMAND BYPASS PIPE,SWHSYS1 DEMAND BYPASS PIPE INLET NODE,SWHSYS1 DEMAND BYPASS PIPE OUTLET NODE,Pipe Nodes
 Component Set,19,BRANCH,SWHSYS1 DEMAND OUTLET BRANCH,PIPE:ADIABATIC,SWHSYS1 DEMAND OUTLET PIPE,SWHSYS1 DEMAND MIXER-SWHSYS1 DEMAND OUTLET PIPE,SWHSYS1 DEMAND OUTLET NODE,Pipe Nodes
 Component Set,20,BRANCH,SWH DEMAND LOAD BRANCH CORE_BOTTOM SUB CAT,WATERUSE:CONNECTIONS,CORE_BOTTOM SUB CAT,CORE_BOTTOM SUB CAT WATER INLET NODE,CORE_BOTTOM SUB CAT WATER OUTLET NODE,DHW Nodes
 Component Set,21,BRANCH,SWH DEMAND LOAD BRANCH CORE_MID SUB CAT,WATERUSE:CONNECTIONS,CORE_MID SUB CAT,CORE_MID SUB CAT WATER INLET NODE,CORE_MID SUB CAT WATER OUTLET NODE,DHW Nodes
 Component Set,22,BRANCH,SWH DEMAND LOAD BRANCH CORE_TOP SUB CAT,WATERUSE:CONNECTIONS,CORE_TOP SUB CAT,CORE_TOP SUB CAT WATER INLET NODE,CORE_TOP SUB CAT WATER OUTLET NODE,DHW Nodes
 Component Set,23,BRANCH,SWH DEMAND LOAD BRANCH PERIMETER_TOP_ZN_3 SUB CAT,WATERUSE:CONNECTIONS,PERIMETER_TOP_ZN_3 SUB CAT,PERIMETER_TOP_ZN_3 SUB CAT WATER INLET NODE,PERIMETER_TOP_ZN_3 SUB CAT WATER OUTLET NODE,DHW Nodes
 Component Set,24,BRANCH,SWH DEMAND LOAD BRANCH PERIMETER_TOP_ZN_2 SUB CAT,WATERUSE:CONNECTIONS,PERIMETER_TOP_ZN_2 SUB CAT,PERIMETER_TOP_ZN_2 SUB CAT WATER INLET NODE,PERIMETER_TOP_ZN_2 SUB CAT WATER OUTLET NODE,DHW Nodes
 Component Set,25,BRANCH,SWH DEMAND LOAD BRANCH PERIMETER_TOP_ZN_1 SUB CAT,WATERUSE:CONNECTIONS,PERIMETER_TOP_ZN_1 SUB CAT,PERIMETER_TOP_ZN_1 SUB CAT WATER INLET NODE,PERIMETER_TOP_ZN_1 SUB CAT WATER OUTLET NODE,DHW Nodes
 Component Set,26,BRANCH,SWH DEMAND LOAD BRANCH PERIMETER_TOP_ZN_4 SUB CAT,WATERUSE:CONNECTIONS,PERIMETER_TOP_ZN_4 SUB CAT,PERIMETER_TOP_ZN_4 SUB CAT WATER INLET NODE,PERIMETER_TOP_ZN_4 SUB CAT WATER OUTLET NODE,DHW Nodes
 Component Set,27,BRANCH,SWH DEMAND LOAD BRANCH PERIMETER_BOT_ZN_3 SUB CAT,WATERUSE:CONNECTIONS,PERIMETER_BOT_ZN_3 SUB CAT,PERIMETER_BOT_ZN_3 SUB CAT WATER INLET NODE,PERIMETER_BOT_ZN_3 SUB CAT WATER OUTLET NODE,DHW Nodes
 Component Set,28,BRANCH,SWH DEMAND LOAD BRANCH PERIMETER_BOT_ZN_2 SUB CAT,WATERUSE:CONNECTIONS,PERIMETER_BOT_ZN_2 SUB CAT,PERIMETER_BOT_ZN_2 SUB CAT WATER INLET NODE,PERIMETER_BOT_ZN_2 SUB CAT WATER OUTLET NODE,DHW Nodes
 Component Set,29,BRANCH,SWH DEMAND LOAD BRANCH PERIMETER_BOT_ZN_1 SUB CAT,WATERUSE:CONNECTIONS,PERIMETER_BOT_ZN_1 SUB CAT,PERIMETER_BOT_ZN_1 SUB CAT WATER INLET NODE,PERIMETER_BOT_ZN_1 SUB CAT WATER OUTLET NODE,DHW Nodes
 Component Set,30,BRANCH,SWH DEMAND LOAD BRANCH PERIMETER_BOT_ZN_4 SUB CAT,WATERUSE:CONNECTIONS,PERIMETER_BOT_ZN_4 SUB CAT,PERIMETER_BOT_ZN_4 SUB CAT WATER INLET NODE,PERIMETER_BOT_ZN_4 SUB CAT WATER OUTLET NODE,DHW Nodes
 Component Set,31,BRANCH,SWH DEMAND LOAD BRANCH PERIMETER_MID_ZN_3 SUB CAT,WATERUSE:CONNECTIONS,PERIMETER_MID_ZN_3 SUB CAT,PERIMETER_MID_ZN_3 SUB CAT WATER INLET NODE,PERIMETER_MID_ZN_3 SUB CAT WATER OUTLET NODE,DHW Nodes
 Component Set,32,BRANCH,SWH DEMAND LOAD BRANCH PERIMETER_MID_ZN_2 SUB CAT,WATERUSE:CONNECTIONS,PERIMETER_MID_ZN_2 SUB CAT,PERIMETER_MID_ZN_2 SUB CAT WATER INLET NODE,PERIMETER_MID_ZN_2 SUB CAT WATER OUTLET NODE,DHW Nodes
 Component Set,33,BRANCH,SWH DEMAND LOAD BRANCH PERIMETER_MID_ZN_1 SUB CAT,WATERUSE:CONNECTIONS,PERIMETER_MID_ZN_1 SUB CAT,PERIMETER_MID_ZN_1 SUB CAT WATER INLET NODE,PERIMETER_MID_ZN_1 SUB CAT WATER OUTLET NODE,DHW Nodes
 Component Set,34,BRANCH,SWH DEMAND LOAD BRANCH PERIMETER_MID_ZN_4 SUB CAT,WATERUSE:CONNECTIONS,PERIMETER_MID_ZN_4 SUB CAT,PERIMETER_MID_ZN_4 SUB CAT WATER INLET NODE,PERIMETER_MID_ZN_4 SUB CAT WATER OUTLET NODE,DHW Nodes
 Component Set,35,COILSYSTEM:COOLING:DX,PACU_VAV_BOT COOLING COIL,COIL:COOLING:DX:TWOSPEED,PACU_VAV_BOT COOLING COIL,PACU_VAV_BOT_OA-PACU_VAV_BOT_COOLCNODE,PACU_VAV_BOT_COOLC-PACU_VAV_BOT_HEATCNODE,Air Nodes
 Component Set,36,COILSYSTEM:COOLING:DX,PACU_VAV_MID COOLING COIL,COIL:COOLING:DX:TWOSPEED,PACU_VAV_MID COOLING COIL,PACU_VAV_MID_OA-PACU_VAV_MID_COOLCNODE,PACU_VAV_MID_COOLC-PACU_VAV_MID_HEATCNODE,Air Nodes
 Component Set,37,COILSYSTEM:COOLING:DX,PACU_VAV_TOP COOLING COIL,COIL:COOLING:DX:TWOSPEED,PACU_VAV_TOP COOLING COIL,PACU_VAV_TOP_OA-PACU_VAV_TOP_COOLCNODE,PACU_VAV_TOP_COOLC-PACU_VAV_TOP_HEATCNODE,Air Nodes
 Component Set,38,WATERHEATER:HEATPUMP:PUMPEDCONDENSER,SWHSYS1 HPWH,COIL:WATERHEATING:AIRTOWATERHEATPUMP:PUMPED,SWHSYS1 HPWH DXCOIL,HPWH_OUTLET_EXHAUST NODE,SWHSYS1 HPWH FAN INLET,Air Nodes
 Component Set,39,WATERHEATER:HEATPUMP:PUMPEDCONDENSER,SWHSYS1 HPWH,COIL:WATERHEATING:AIRTOWATERHEATPUMP:PUMPED,SWHSYS1 HPWH DXCOIL,SWHSYS1 HPWH WATER INLET,SWHSYS1 HPWH WATER OUTLET,HPWH To Coil
 Component Set,40,WATERHEATER:HEATPUMP:PUMPEDCONDENSER,SWHSYS1 HPWH,FAN:SYSTEMMODEL,SWHSYS1 HPWH FAN,SWHSYS1 HPWH FAN INLET,HPWH OUTLET NODE INTO ZONE,Air Nodes
 Component Set,41,WATERHEATER:HEATPUMP:PUMPEDCONDENSER,SWHSYS1 HPWH,WATERHEATER:STRATIFIED,SWHSYS1 HPWH TANK,SWHSYS1 HPWH WATER OUTLET,SWHSYS1 HPWH WATER INLET,HPWH To Tank
 Component Set,42,ZONEHVAC:AIRDISTRIBUTIONUNIT,CORE_BOTTOM VAV BOX,AIRTERMINAL:SINGLEDUCT:VAV:REHEAT,CORE_BOTTOM VAV BOX COMPONENT,CORE_BOTTOM VAV BOX INLET NODE,CORE_BOTTOM VAV BOX OUTLET NODE,Air Nodes
 Component Set,43,ZONEHVAC:AIRDISTRIBUTIONUNIT,PERIMETER_BOT_ZN_1 VAV BOX,AIRTERMINAL:SINGLEDUCT:VAV:REHEAT,PERIMETER_BOT_ZN_1 VAV BOX COMPONENT,PERIMETER_BOT_ZN_1 VAV BOX INLET NODE,PERIMETER_BOT_ZN_1 VAV BOX OUTLET NODE,Air Nodes
 Component Set,44,ZONEHVAC:AIRDISTRIBUTIONUNIT,PERIMETER_BOT_ZN_2 VAV BOX,AIRTERMINAL:SINGLEDUCT:VAV:REHEAT,PERIMETER_BOT_ZN_2 VAV BOX COMPONENT,PERIMETER_BOT_ZN_2 VAV BOX INLET NODE,PERIMETER_BOT_ZN_2 VAV BOX OUTLET NODE,Air Nodes
 Component Set,45,ZONEHVAC:AIRDISTRIBUTIONUNIT,PERIMETER_BOT_ZN_3 VAV BOX,AIRTERMINAL:SINGLEDUCT:VAV:REHEAT,PERIMETER_BOT_ZN_3 VAV BOX COMPONENT,PERIMETER_BOT_ZN_3 VAV BOX INLET NODE,PERIMETER_BOT_ZN_3 VAV BOX OUTLET NODE,Air Nodes
 Component Set,46,ZONEHVAC:AIRDISTRIBUTIONUNIT,PERIMETER_BOT_ZN_4 VAV BOX,AIRTERMINAL:SINGLEDUCT:VAV:REHEAT,PERIMETER_BOT_ZN_4 VAV BOX COMPONENT,PERIMETER_BOT_ZN_4 VAV BOX INLET NODE,PERIMETER_BOT_ZN_4 VAV BOX OUTLET NODE,Air Nodes
 Component Set,47,ZONEHVAC:AIRDISTRIBUTIONUNIT,CORE_MID VAV BOX,AIRTERMINAL:SINGLEDUCT:VAV:REHEAT,CORE_MID VAV BOX COMPONENT,CORE_MID VAV BOX INLET NODE,CORE_MID VAV BOX OUTLET NODE,Air Nodes
 Component Set,48,ZONEHVAC:AIRDISTRIBUTIONUNIT,PERIMETER_MID_ZN_1 VAV BOX,AIRTERMINAL:SINGLEDUCT:VAV:REHEAT,PERIMETER_MID_ZN_1 VAV BOX COMPONENT,PERIMETER_MID_ZN_1 VAV BOX INLET NODE,PERIMETER_MID_ZN_1 VAV BOX OUTLET NODE,Air Nodes
 Component Set,49,ZONEHVAC:AIRDISTRIBUTIONUNIT,PERIMETER_MID_ZN_2 VAV BOX,AIRTERMINAL:SINGLEDUCT:VAV:REHEAT,PERIMETER_MID_ZN_2 VAV BOX COMPONENT,PERIMETER_MID_ZN_2 VAV BOX INLET NODE,PERIMETER_MID_ZN_2 VAV BOX OUTLET NODE,Air Nodes
 Component Set,50,ZONEHVAC:AIRDISTRIBUTIONUNIT,PERIMETER_MID_ZN_3 VAV BOX,AIRTERMINAL:SINGLEDUCT:VAV:REHEAT,PERIMETER_MID_ZN_3 VAV BOX COMPONENT,PERIMETER_MID_ZN_3 VAV BOX INLET NODE,PERIMETER_MID_ZN_3 VAV BOX OUTLET NODE,Air Nodes
 Component Set,51,ZONEHVAC:AIRDISTRIBUTIONUNIT,PERIMETER_MID_ZN_4 VAV BOX,AIRTERMINAL:SINGLEDUCT:VAV:REHEAT,PERIMETER_MID_ZN_4 VAV BOX COMPONENT,PERIMETER_MID_ZN_4 VAV BOX INLET NODE,PERIMETER_MID_ZN_4 VAV BOX OUTLET NODE,Air Nodes
 Component Set,52,ZONEHVAC:AIRDISTRIBUTIONUNIT,CORE_TOP VAV BOX,AIRTERMINAL:SINGLEDUCT:VAV:REHEAT,CORE_TOP VAV BOX COMPONENT,CORE_TOP VAV BOX INLET NODE,CORE_TOP VAV BOX OUTLET NODE,Air Nodes
 Component Set,53,ZONEHVAC:AIRDISTRIBUTIONUNIT,PERIMETER_TOP_ZN_1 VAV BOX,AIRTERMINAL:SINGLEDUCT:VAV:REHEAT,PERIMETER_TOP_ZN_1 VAV BOX COMPONENT,PERIMETER_TOP_ZN_1 VAV BOX INLET NODE,PERIMETER_TOP_ZN_1 VAV BOX OUTLET NODE,Air Nodes
 Component Set,54,ZONEHVAC:AIRDISTRIBUTIONUNIT,PERIMETER_TOP_ZN_2 VAV BOX,AIRTERMINAL:SINGLEDUCT:VAV:REHEAT,PERIMETER_TOP_ZN_2 VAV BOX COMPONENT,PERIMETER_TOP_ZN_2 VAV BOX INLET NODE,PERIMETER_TOP_ZN_2 VAV BOX OUTLET NODE,Air Nodes
 Component Set,55,ZONEHVAC:AIRDISTRIBUTIONUNIT,PERIMETER_TOP_ZN_3 VAV BOX,AIRTERMINAL:SINGLEDUCT:VAV:REHEAT,PERIMETER_TOP_ZN_3 VAV BOX COMPONENT,PERIMETER_TOP_ZN_3 VAV BOX INLET NODE,PERIMETER_TOP_ZN_3 VAV BOX OUTLET NODE,Air Nodes
 Component Set,56,ZONEHVAC:AIRDISTRIBUTIONUNIT,PERIMETER_TOP_ZN_4 VAV BOX,AIRTERMINAL:SINGLEDUCT:VAV:REHEAT,PERIMETER_TOP_ZN_4 VAV BOX COMPONENT,PERIMETER_TOP_ZN_4 VAV BOX INLET NODE,PERIMETER_TOP_ZN_4 VAV BOX OUTLET NODE,Air Nodes
 Component Set,57,AIRTERMINAL:SINGLEDUCT:VAV:REHEAT,CORE_BOTTOM VAV BOX COMPONENT,COIL:HEATING:ELECTRIC,CORE_BOTTOM VAV BOX REHEAT COIL,CORE_BOTTOM VAV BOX DAMPER NODE,CORE_BOTTOM VAV BOX OUTLET NODE,Air Nodes
 Component Set,58,AIRTERMINAL:SINGLEDUCT:VAV:REHEAT,PERIMETER_BOT_ZN_1 VAV BOX COMPONENT,COIL:HEATING:ELECTRIC,PERIMETER_BOT_ZN_1 VAV BOX REHEAT COIL,PERIMETER_BOT_ZN_1 VAV BOX DAMPER NODE,PERIMETER_BOT_ZN_1 VAV BOX OUTLET NODE,Air Nodes
 Component Set,59,AIRTERMINAL:SINGLEDUCT:VAV:REHEAT,PERIMETER_BOT_ZN_2 VAV BOX COMPONENT,COIL:HEATING:ELECTRIC,PERIMETER_BOT_ZN_2 VAV BOX REHEAT COIL,PERIMETER_BOT_ZN_2 VAV BOX DAMPER NODE,PERIMETER_BOT_ZN_2 VAV BOX OUTLET NODE,Air Nodes
 Component Set,60,AIRTERMINAL:SINGLEDUCT:VAV:REHEAT,PERIMETER_BOT_ZN_3 VAV BOX COMPONENT,COIL:HEATING:ELECTRIC,PERIMETER_BOT_ZN_3 VAV BOX REHEAT COIL,PERIMETER_BOT_ZN_3 VAV BOX DAMPER NODE,PERIMETER_BOT_ZN_3 VAV BOX OUTLET NODE,Air Nodes
 Component Set,61,AIRTERMINAL:SINGLEDUCT:VAV:REHEAT,PERIMETER_BOT_ZN_4 VAV BOX COMPONENT,COIL:HEATING:ELECTRIC,PERIMETER_BOT_ZN_4 VAV BOX REHEAT COIL,PERIMETER_BOT_ZN_4 VAV BOX DAMPER NODE,PERIMETER_BOT_ZN_4 VAV BOX OUTLET NODE,Air Nodes
 Component Set,62,AIRTERMINAL:SINGLEDUCT:VAV:REHEAT,CORE_MID VAV BOX COMPONENT,COIL:HEATING:ELECTRIC,CORE_MID VAV BOX REHEAT COIL,CORE_MID VAV BOX DAMPER NODE,CORE_MID VAV BOX OUTLET NODE,Air Nodes
 Component Set,63,AIRTERMINAL:SINGLEDUCT:VAV:REHEAT,PERIMETER_MID_ZN_1 VAV BOX COMPONENT,COIL:HEATING:ELECTRIC,PERIMETER_MID_ZN_1 VAV BOX REHEAT COIL,PERIMETER_MID_ZN_1 VAV BOX DAMPER NODE,PERIMETER_MID_ZN_1 VAV BOX OUTLET NODE,Air Nodes
 Component Set,64,AIRTERMINAL:SINGLEDUCT:VAV:REHEAT,PERIMETER_MID_ZN_2 VAV BOX COMPONENT,COIL:HEATING:ELECTRIC,PERIMETER_MID_ZN_2 VAV BOX REHEAT COIL,PERIMETER_MID_ZN_2 VAV BOX DAMPER NODE,PERIMETER_MID_ZN_2 VAV BOX OUTLET NODE,Air Nodes
 Component Set,65,AIRTERMINAL:SINGLEDUCT:VAV:REHEAT,PERIMETER_MID_ZN_3 VAV BOX COMPONENT,COIL:HEATING:ELECTRIC,PERIMETER_MID_ZN_3 VAV BOX REHEAT COIL,PERIMETER_MID_ZN_3 VAV BOX DAMPER NODE,PERIMETER_MID_ZN_3 VAV BOX OUTLET NODE,Air Nodes
 Component Set,66,AIRTERMINAL:SINGLEDUCT:VAV:REHEAT,PERIMETER_MID_ZN_4 VAV BOX COMPONENT,COIL:HEATING:ELECTRIC,PERIMETER_MID_ZN_4 VAV BOX REHEAT COIL,PERIMETER_MID_ZN_4 VAV BOX DAMPER NODE,PERIMETER_MID_ZN_4 VAV BOX OUTLET NODE,Air Nodes
 Component Set,67,AIRTERMINAL:SINGLEDUCT:VAV:REHEAT,CORE_TOP VAV BOX COMPONENT,COIL:HEATING:ELECTRIC,CORE_TOP VAV BOX REHEAT COIL,CORE_TOP VAV BOX DAMPER NODE,CORE_TOP VAV BOX OUTLET NODE,Air Nodes
 Component Set,68,AIRTERMINAL:SINGLEDUCT:VAV:REHEAT,PERIMETER_TOP_ZN_1 VAV BOX COMPONENT,COIL:HEATING:ELECTRIC,PERIMETER_TOP_ZN_1 VAV BOX REHEAT COIL,PERIMETER_TOP_ZN_1 VAV BOX DAMPER NODE,PERIMETER_TOP_ZN_1 VAV BOX OUTLET NODE,Air Nodes
 Component Set,69,AIRTERMINAL:SINGLEDUCT:VAV:REHEAT,PERIMETER_TOP_ZN_2 VAV BOX COMPONENT,COIL:HEATING:ELECTRIC,PERIMETER_TOP_ZN_2 VAV BOX REHEAT COIL,PERIMETER_TOP_ZN_2 VAV BOX DAMPER NODE,PERIMETER_TOP_ZN_2 VAV BOX OUTLET NODE,Air Nodes
 Component Set,70,AIRTERMINAL:SINGLEDUCT:VAV:REHEAT,PERIMETER_TOP_ZN_3 VAV BOX COMPONENT,COIL:HEATING:ELECTRIC,PERIMETER_TOP_ZN_3 VAV BOX REHEAT COIL,PERIMETER_TOP_ZN_3 VAV BOX DAMPER NODE,PERIMETER_TOP_ZN_3 VAV BOX OUTLET NODE,Air Nodes
 Component Set,71,AIRTERMINAL:SINGLEDUCT:VAV:REHEAT,PERIMETER_TOP_ZN_4 VAV BOX COMPONENT,COIL:HEATING:ELECTRIC,PERIMETER_TOP_ZN_4 VAV BOX REHEAT COIL,PERIMETER_TOP_ZN_4 VAV BOX DAMPER NODE,PERIMETER_TOP_ZN_4 VAV BOX OUTLET NODE,Air Nodes
 Component Set,72,AIRLOOPHVAC:OUTDOORAIRSYSTEM,PACU_VAV_BOT_OA,OUTDOORAIR:MIXER,PACU_VAV_BOT_OAMIXING BOX,PACU_VAV_BOT_OAINLET NODE,PACU_VAV_BOT_OA-PACU_VAV_BOT_COOLCNODE,Air Nodes
 Component Set,73,AIRLOOPHVAC:OUTDOORAIRSYSTEM,PACU_VAV_MID_OA,OUTDOORAIR:MIXER,PACU_VAV_MID_OAMIXING BOX,PACU_VAV_MID_OAINLET NODE,PACU_VAV_MID_OA-PACU_VAV_MID_COOLCNODE,Air Nodes
 Component Set,74,AIRLOOPHVAC:OUTDOORAIRSYSTEM,PACU_VAV_TOP_OA,OUTDOORAIR:MIXER,PACU_VAV_TOP_OAMIXING BOX,PACU_VAV_TOP_OAINLET NODE,PACU_VAV_TOP_OA-PACU_VAV_TOP_COOLCNODE,Air Nodes
! ===============================================================
! <# Plant Loops>,<Number of Plant Loops>
 #Plant Loops,1
! <Plant Loop>,<Plant Loop Name>,<Loop Type>,<Inlet Node Name>,<Outlet Node Name>,<Branch List>,<Connector List>
! <Plant Loop Connector>,<Connector Type>,<Connector Name>,<Loop Name>,<Loop Type>,<Number of Inlets/Outlets>
! <Plant Loop Connector Branches>,<Connector Node Count>,<Connector Type>,<Connector Name>,<Inlet Branch>,<Outlet Branch>,<Loop Name>,<Loop Type>
! <Plant Loop Connector Nodes>,<Connector Node Count>,<Connector Type>,<Connector Name>,<Inlet Node>,<Outlet Node>,<Loop Name>,<Loop Type>
! <Plant Loop Supply Connection>,<Plant Loop Name>,<Supply Side Outlet Node Name>,<Demand Side Inlet Node Name>
! <Plant Loop Return Connection>,<Plant Loop Name>,<Demand Side Outlet Node Name>,<Supply Side Inlet Node Name>
 Plant Loop,SWHSYS1,Demand,SWHSYS1 DEMAND INLET NODE,SWHSYS1 DEMAND OUTLET NODE,SWHSYS1 DEMAND BRANCHES,SWHSYS1 DEMAND CONNECTORS
   Plant Loop Connector,Splitter,SWHSYS1 DEMAND SPLITTER,SWHSYS1,Demand,16
     Plant Loop Connector Branches,1,Splitter,SWHSYS1 DEMAND SPLITTER,SWHSYS1 DEMAND INLET BRANCH,SWH DEMAND LOAD BRANCH CORE_BOTTOM SUB CAT,SWHSYS1,Demand
     Plant Loop Connector Nodes,   1,Splitter,SWHSYS1 DEMAND SPLITTER,SWHSYS1 DEMAND INLET PIPE-SWHSYS1 DEMAND MIXER,CORE_BOTTOM SUB CAT WATER INLET NODE,SWHSYS1,Demand
     Plant Loop Connector Branches,2,Splitter,SWHSYS1 DEMAND SPLITTER,SWHSYS1 DEMAND INLET BRANCH,SWH DEMAND LOAD BRANCH CORE_MID SUB CAT,SWHSYS1,Demand
     Plant Loop Connector Nodes,   2,Splitter,SWHSYS1 DEMAND SPLITTER,SWHSYS1 DEMAND INLET PIPE-SWHSYS1 DEMAND MIXER,CORE_MID SUB CAT WATER INLET NODE,SWHSYS1,Demand
     Plant Loop Connector Branches,3,Splitter,SWHSYS1 DEMAND SPLITTER,SWHSYS1 DEMAND INLET BRANCH,SWH DEMAND LOAD BRANCH CORE_TOP SUB CAT,SWHSYS1,Demand
     Plant Loop Connector Nodes,   3,Splitter,SWHSYS1 DEMAND SPLITTER,SWHSYS1 DEMAND INLET PIPE-SWHSYS1 DEMAND MIXER,CORE_TOP SUB CAT WATER INLET NODE,SWHSYS1,Demand
     Plant Loop Connector Branches,4,Splitter,SWHSYS1 DEMAND SPLITTER,SWHSYS1 DEMAND INLET BRANCH,SWH DEMAND LOAD BRANCH PERIMETER_TOP_ZN_3 SUB CAT,SWHSYS1,Demand
     Plant Loop Connector Nodes,   4,Splitter,SWHSYS1 DEMAND SPLITTER,SWHSYS1 DEMAND INLET PIPE-SWHSYS1 DEMAND MIXER,PERIMETER_TOP_ZN_3 SUB CAT WATER INLET NODE,SWHSYS1,Demand
     Plant Loop Connector Branches,5,Splitter,SWHSYS1 DEMAND SPLITTER,SWHSYS1 DEMAND INLET BRANCH,SWH DEMAND LOAD BRANCH PERIMETER_TOP_ZN_2 SUB CAT,SWHSYS1,Demand
     Plant Loop Connector Nodes,   5,Splitter,SWHSYS1 DEMAND SPLITTER,SWHSYS1 DEMAND INLET PIPE-SWHSYS1 DEMAND MIXER,PERIMETER_TOP_ZN_2 SUB CAT WATER INLET NODE,SWHSYS1,Demand
     Plant Loop Connector Branches,6,Splitter,SWHSYS1 DEMAND SPLITTER,SWHSYS1 DEMAND INLET BRANCH,SWH DEMAND LOAD BRANCH PERIMETER_TOP_ZN_1 SUB CAT,SWHSYS1,Demand
     Plant Loop Connector Nodes,   6,Splitter,SWHSYS1 DEMAND SPLITTER,SWHSYS1 DEMAND INLET PIPE-SWHSYS1 DEMAND MIXER,PERIMETER_TOP_ZN_1 SUB CAT WATER INLET NODE,SWHSYS1,Demand
     Plant Loop Connector Branches,7,Splitter,SWHSYS1 DEMAND SPLITTER,SWHSYS1 DEMAND INLET BRANCH,SWH DEMAND LOAD BRANCH PERIMETER_TOP_ZN_4 SUB CAT,SWHSYS1,Demand
     Plant Loop Connector Nodes,   7,Splitter,SWHSYS1 DEMAND SPLITTER,SWHSYS1 DEMAND INLET PIPE-SWHSYS1 DEMAND MIXER,PERIMETER_TOP_ZN_4 SUB CAT WATER INLET NODE,SWHSYS1,Demand
     Plant Loop Connector Branches,8,Splitter,SWHSYS1 DEMAND SPLITTER,SWHSYS1 DEMAND INLET BRANCH,SWH DEMAND LOAD BRANCH PERIMETER_BOT_ZN_3 SUB CAT,SWHSYS1,Demand
     Plant Loop Connector Nodes,   8,Splitter,SWHSYS1 DEMAND SPLITTER,SWHSYS1 DEMAND INLET PIPE-SWHSYS1 DEMAND MIXER,PERIMETER_BOT_ZN_3 SUB CAT WATER INLET NODE,SWHSYS1,Demand
     Plant Loop Connector Branches,9,Splitter,SWHSYS1 DEMAND SPLITTER,SWHSYS1 DEMAND INLET BRANCH,SWH DEMAND LOAD BRANCH PERIMETER_BOT_ZN_2 SUB CAT,SWHSYS1,Demand
     Plant Loop Connector Nodes,   9,Splitter,SWHSYS1 DEMAND SPLITTER,SWHSYS1 DEMAND INLET PIPE-SWHSYS1 DEMAND MIXER,PERIMETER_BOT_ZN_2 SUB CAT WATER INLET NODE,SWHSYS1,Demand
     Plant Loop Connector Branches,10,Splitter,SWHSYS1 DEMAND SPLITTER,SWHSYS1 DEMAND INLET BRANCH,SWH DEMAND LOAD BRANCH PERIMETER_BOT_ZN_1 SUB CAT,SWHSYS1,Demand
     Plant Loop Connector Nodes,   10,Splitter,SWHSYS1 DEMAND SPLITTER,SWHSYS1 DEMAND INLET PIPE-SWHSYS1 DEMAND MIXER,PERIMETER_BOT_ZN_1 SUB CAT WATER INLET NODE,SWHSYS1,Demand
     Plant Loop Connector Branches,11,Splitter,SWHSYS1 DEMAND SPLITTER,SWHSYS1 DEMAND INLET BRANCH,SWH DEMAND LOAD BRANCH PERIMETER_BOT_ZN_4 SUB CAT,SWHSYS1,Demand
     Plant Loop Connector Nodes,   11,Splitter,SWHSYS1 DEMAND SPLITTER,SWHSYS1 DEMAND INLET PIPE-SWHSYS1 DEMAND MIXER,PERIMETER_BOT_ZN_4 SUB CAT WATER INLET NODE,SWHSYS1,Demand
     Plant Loop Connector Branches,12,Splitter,SWHSYS1 DEMAND SPLITTER,SWHSYS1 DEMAND INLET BRANCH,SWH DEMAND LOAD BRANCH PERIMETER_MID_ZN_3 SUB CAT,SWHSYS1,Demand
     Plant Loop Connector Nodes,   12,Splitter,SWHSYS1 DEMAND SPLITTER,SWHSYS1 DEMAND INLET PIPE-SWHSYS1 DEMAND MIXER,PERIMETER_MID_ZN_3 SUB CAT WATER INLET NODE,SWHSYS1,Demand
     Plant Loop Connector Branches,13,Splitter,SWHSYS1 DEMAND SPLITTER,SWHSYS1 DEMAND INLET BRANCH,SWH DEMAND LOAD BRANCH PERIMETER_MID_ZN_2 SUB CAT,SWHSYS1,Demand
     Plant Loop Connector Nodes,   13,Splitter,SWHSYS1 DEMAND SPLITTER,SWHSYS1 DEMAND INLET PIPE-SWHSYS1 DEMAND MIXER,PERIMETER_MID_ZN_2 SUB CAT WATER INLET NODE,SWHSYS1,Demand
     Plant Loop Connector Branches,14,Splitter,SWHSYS1 DEMAND SPLITTER,SWHSYS1 DEMAND INLET BRANCH,SWH DEMAND LOAD BRANCH PERIMETER_MID_ZN_1 SUB CAT,SWHSYS1,Demand
     Plant Loop Connector Nodes,   14,Splitter,SWHSYS1 DEMAND SPLITTER,SWHSYS1 DEMAND INLET PIPE-SWHSYS1 DEMAND MIXER,PERIMETER_MID_ZN_1 SUB CAT WATER INLET NODE,SWHSYS1,Demand
     Plant Loop Connector Branches,15,Splitter,SWHSYS1 DEMAND SPLITTER,SWHSYS1 DEMAND INLET BRANCH,SWH DEMAND LOAD BRANCH PERIMETER_MID_ZN_4 SUB CAT,SWHSYS1,Demand
     Plant Loop Connector Nodes,   15,Splitter,SWHSYS1 DEMAND SPLITTER,SWHSYS1 DEMAND INLET PIPE-SWHSYS1 DEMAND MIXER,PERIMETER_MID_ZN_4 SUB CAT WATER INLET NODE,SWHSYS1,Demand
     Plant Loop Connector Branches,16,Splitter,SWHSYS1 DEMAND SPLITTER,SWHSYS1 DEMAND INLET BRANCH,SWHSYS1 DEMAND BYPASS BRANCH,SWHSYS1,Demand
     Plant Loop Connector Nodes,   16,Splitter,SWHSYS1 DEMAND SPLITTER,SWHSYS1 DEMAND INLET PIPE-SWHSYS1 DEMAND MIXER,SWHSYS1 DEMAND BYPASS PIPE INLET NODE,SWHSYS1,Demand
   Plant Loop Connector,Mixer,SWHSYS1 DEMAND MIXER,SWHSYS1,Demand,16
     Plant Loop Connector Branches,1,Mixer,SWHSYS1 DEMAND MIXER,SWH DEMAND LOAD BRANCH CORE_BOTTOM SUB CAT,SWHSYS1 DEMAND OUTLET BRANCH,SWHSYS1,Demand
     Plant Loop Connector Nodes,   1,Mixer,SWHSYS1 DEMAND MIXER,CORE_BOTTOM SUB CAT WATER OUTLET NODE,SWHSYS1 DEMAND MIXER-SWHSYS1 DEMAND OUTLET PIPE,SWHSYS1,Demand
     Plant Loop Connector Branches,2,Mixer,SWHSYS1 DEMAND MIXER,SWH DEMAND LOAD BRANCH CORE_MID SUB CAT,SWHSYS1 DEMAND OUTLET BRANCH,SWHSYS1,Demand
     Plant Loop Connector Nodes,   2,Mixer,SWHSYS1 DEMAND MIXER,CORE_MID SUB CAT WATER OUTLET NODE,SWHSYS1 DEMAND MIXER-SWHSYS1 DEMAND OUTLET PIPE,SWHSYS1,Demand
     Plant Loop Connector Branches,3,Mixer,SWHSYS1 DEMAND MIXER,SWH DEMAND LOAD BRANCH CORE_TOP SUB CAT,SWHSYS1 DEMAND OUTLET BRANCH,SWHSYS1,Demand
     Plant Loop Connector Nodes,   3,Mixer,SWHSYS1 DEMAND MIXER,CORE_TOP SUB CAT WATER OUTLET NODE,SWHSYS1 DEMAND MIXER-SWHSYS1 DEMAND OUTLET PIPE,SWHSYS1,Demand
     Plant Loop Connector Branches,4,Mixer,SWHSYS1 DEMAND MIXER,SWH DEMAND LOAD BRANCH PERIMETER_TOP_ZN_3 SUB CAT,SWHSYS1 DEMAND OUTLET BRANCH,SWHSYS1,Demand
     Plant Loop Connector Nodes,   4,Mixer,SWHSYS1 DEMAND MIXER,PERIMETER_TOP_ZN_3 SUB CAT WATER OUTLET NODE,SWHSYS1 DEMAND MIXER-SWHSYS1 DEMAND OUTLET PIPE,SWHSYS1,Demand
     Plant Loop Connector Branches,5,Mixer,SWHSYS1 DEMAND MIXER,SWH DEMAND LOAD BRANCH PERIMETER_TOP_ZN_2 SUB CAT,SWHSYS1 DEMAND OUTLET BRANCH,SWHSYS1,Demand
     Plant Loop Connector Nodes,   5,Mixer,SWHSYS1 DEMAND MIXER,PERIMETER_TOP_ZN_2 SUB CAT WATER OUTLET NODE,SWHSYS1 DEMAND MIXER-SWHSYS1 DEMAND OUTLET PIPE,SWHSYS1,Demand
     Plant Loop Connector Branches,6,Mixer,SWHSYS1 DEMAND MIXER,SWH DEMAND LOAD BRANCH PERIMETER_TOP_ZN_1 SUB CAT,SWHSYS1 DEMAND OUTLET BRANCH,SWHSYS1,Demand
     Plant Loop Connector Nodes,   6,Mixer,SWHSYS1 DEMAND MIXER,PERIMETER_TOP_ZN_1 SUB CAT WATER OUTLET NODE,SWHSYS1 DEMAND MIXER-SWHSYS1 DEMAND OUTLET PIPE,SWHSYS1,Demand
     Plant Loop Connector Branches,7,Mixer,SWHSYS1 DEMAND MIXER,SWH DEMAND LOAD BRANCH PERIMETER_TOP_ZN_4 SUB CAT,SWHSYS1 DEMAND OUTLET BRANCH,SWHSYS1,Demand
     Plant Loop Connector Nodes,   7,Mixer,SWHSYS1 DEMAND MIXER,PERIMETER_TOP_ZN_4 SUB CAT WATER OUTLET NODE,SWHSYS1 DEMAND MIXER-SWHSYS1 DEMAND OUTLET PIPE,SWHSYS1,Demand
     Plant Loop Connector Branches,8,Mixer,SWHSYS1 DEMAND MIXER,SWH DEMAND LOAD BRANCH PERIMETER_BOT_ZN_3 SUB CAT,SWHSYS1 DEMAND OUTLET BRANCH,SWHSYS1,Demand
     Plant Loop Connector Nodes,   8,Mixer,SWHSYS1 DEMAND MIXER,PERIMETER_BOT_ZN_3 SUB CAT WATER OUTLET NODE,SWHSYS1 DEMAND MIXER-SWHSYS1 DEMAND OUTLET PIPE,SWHSYS1,Demand
     Plant Loop Connector Branches,9,Mixer,SWHSYS1 DEMAND MIXER,SWH DEMAND LOAD BRANCH PERIMETER_BOT_ZN_2 SUB CAT,SWHSYS1 DEMAND OUTLET BRANCH,SWHSYS1,Demand
     Plant Loop Connector Nodes,   9,Mixer,SWHSYS1 DEMAND MIXER,PERIMETER_BOT_ZN_2 SUB CAT WATER OUTLET NODE,SWHSYS1 DEMAND MIXER-SWHSYS1 DEMAND OUTLET PIPE,SWHSYS1,Demand
     Plant Loop Connector Branches,10,Mixer,SWHSYS1 DEMAND MIXER,SWH DEMAND LOAD BRANCH PERIMETER_BOT_ZN_1 SUB CAT,SWHSYS1 DEMAND OUTLET BRANCH,SWHSYS1,Demand
     Plant Loop Connector Nodes,   10,Mixer,SWHSYS1 DEMAND MIXER,PERIMETER_BOT_ZN_1 SUB CAT WATER OUTLET NODE,SWHSYS1 DEMAND MIXER-SWHSYS1 DEMAND OUTLET PIPE,SWHSYS1,Demand
     Plant Loop Connector Branches,11,Mixer,SWHSYS1 DEMAND MIXER,SWH DEMAND LOAD BRANCH PERIMETER_BOT_ZN_4 SUB CAT,SWHSYS1 DEMAND OUTLET BRANCH,SWHSYS1,Demand
     Plant Loop Connector Nodes,   11,Mixer,SWHSYS1 DEMAND MIXER,PERIMETER_BOT_ZN_4 SUB CAT WATER OUTLET NODE,SWHSYS1 DEMAND MIXER-SWHSYS1 DEMAND OUTLET PIPE,SWHSYS1,Demand
     Plant Loop Connector Branches,12,Mixer,SWHSYS1 DEMAND MIXER,SWH DEMAND LOAD BRANCH PERIMETER_MID_ZN_3 SUB CAT,SWHSYS1 DEMAND OUTLET BRANCH,SWHSYS1,Demand
     Plant Loop Connector Nodes,   12,Mixer,SWHSYS1 DEMAND MIXER,PERIMETER_MID_ZN_3 SUB CAT WATER OUTLET NODE,SWHSYS1 DEMAND MIXER-SWHSYS1 DEMAND OUTLET PIPE,SWHSYS1,Demand
     Plant Loop Connector Branches,13,Mixer,SWHSYS1 DEMAND MIXER,SWH DEMAND LOAD BRANCH PERIMETER_MID_ZN_2 SUB CAT,SWHSYS1 DEMAND OUTLET BRANCH,SWHSYS1,Demand
     Plant Loop Connector Nodes,   13,Mixer,SWHSYS1 DEMAND MIXER,PERIMETER_MID_ZN_2 SUB CAT WATER OUTLET NODE,SWHSYS1 DEMAND MIXER-SWHSYS1 DEMAND OUTLET PIPE,SWHSYS1,Demand
     Plant Loop Connector Branches,14,Mixer,SWHSYS1 DEMAND MIXER,SWH DEMAND LOAD BRANCH PERIMETER_MID_ZN_1 SUB CAT,SWHSYS1 DEMAND OUTLET BRANCH,SWHSYS1,Demand
     Plant Loop Connector Nodes,   14,Mixer,SWHSYS1 DEMAND MIXER,PERIMETER_MID_ZN_1 SUB CAT WATER OUTLET NODE,SWHSYS1 DEMAND MIXER-SWHSYS1 DEMAND OUTLET PIPE,SWHSYS1,Demand
     Plant Loop Connector Branches,15,Mixer,SWHSYS1 DEMAND MIXER,SWH DEMAND LOAD BRANCH PERIMETER_MID_ZN_4 SUB CAT,SWHSYS1 DEMAND OUTLET BRANCH,SWHSYS1,Demand
     Plant Loop Connector Nodes,   15,Mixer,SWHSYS1 DEMAND MIXER,PERIMETER_MID_ZN_4 SUB CAT WATER OUTLET NODE,SWHSYS1 DEMAND MIXER-SWHSYS1 DEMAND OUTLET PIPE,SWHSYS1,Demand
     Plant Loop Connector Branches,16,Mixer,SWHSYS1 DEMAND MIXER,SWHSYS1 DEMAND BYPASS BRANCH,SWHSYS1 DEMAND OUTLET BRANCH,SWHSYS1,Demand
     Plant Loop Connector Nodes,   16,Mixer,SWHSYS1 DEMAND MIXER,SWHSYS1 DEMAND BYPASS PIPE OUTLET NODE,SWHSYS1 DEMAND MIXER-SWHSYS1 DEMAND OUTLET PIPE,SWHSYS1,Demand
 Plant Loop,SWHSYS1,Supply,SWHSYS1 SUPPLY INLET NODE,SWHSYS1 SUPPLY OUTLET NODE,SWHSYS1 SUPPLY BRANCHES,SWHSYS1 SUPPLY CONNECTORS
   Plant Loop Connector,Splitter,SWHSYS1 SUPPLY SPLITTER,SWHSYS1,Supply,2
     Plant Loop Connector Branches,1,Splitter,SWHSYS1 SUPPLY SPLITTER,SWHSYS1 SUPPLY INLET BRANCH,SWHSYS1 SUPPLY EQUIPMENT BRANCH,SWHSYS1,Supply
     Plant Loop Connector Nodes,   1,Splitter,SWHSYS1 SUPPLY SPLITTER,SWHSYS1 PUMP-WATER HEATERNODEVIACONNECTOR,SWHSYS1 PUMP-WATER HEATERNODE,SWHSYS1,Supply
     Plant Loop Connector Branches,2,Splitter,SWHSYS1 SUPPLY SPLITTER,SWHSYS1 SUPPLY INLET BRANCH,SWHSYS1 SUPPLY EQUIPMENT BYPASS BRANCH,SWHSYS1,Supply
     Plant Loop Connector Nodes,   2,Splitter,SWHSYS1 SUPPLY SPLITTER,SWHSYS1 PUMP-WATER HEATERNODEVIACONNECTOR,SWHSYS1 SUPPLY EQUIP BYPASS INLET NODE,SWHSYS1,Supply
   Plant Loop Connector,Mixer,SWHSYS1 SUPPLY MIXER,SWHSYS1,Supply,2
     Plant Loop Connector Branches,1,Mixer,SWHSYS1 SUPPLY MIXER,SWHSYS1 SUPPLY EQUIPMENT BRANCH,SWHSYS1 SUPPLY OUTLET BRANCH,SWHSYS1,Supply
     Plant Loop Connector Nodes,   1,Mixer,SWHSYS1 SUPPLY MIXER,SWHSYS1 SUPPLY EQUIPMENT OUTLET NODE,SWHSYS1 SUPPLY MIXER-SWHSYS1 SUPPLY OUTLET PIPE,SWHSYS1,Supply
     Plant Loop Connector Branches,2,Mixer,SWHSYS1 SUPPLY MIXER,SWHSYS1 SUPPLY EQUIPMENT BYPASS BRANCH,SWHSYS1 SUPPLY OUTLET BRANCH,SWHSYS1,Supply
     Plant Loop Connector Nodes,   2,Mixer,SWHSYS1 SUPPLY MIXER,SWHSYS1 SUPPLY EQUIP BYPASS OUTLET NODE,SWHSYS1 SUPPLY MIXER-SWHSYS1 SUPPLY OUTLET PIPE,SWHSYS1,Supply
 Plant Loop Supply Connection,SWHSYS1,SWHSYS1 SUPPLY OUTLET NODE,SWHSYS1 DEMAND INLET NODE
 Plant Loop Return Connection,SWHSYS1,SWHSYS1 DEMAND OUTLET NODE,SWHSYS1 SUPPLY INLET NODE
! ===============================================================
! <# Condenser Loops>,<Number of Condenser Loops>
 #Condenser Loops,0
! <Condenser Loop>,<Condenser Loop Name>,<Loop Type>,<Inlet Node Name>,<Outlet Node Name>,<Branch List>,<Connector List>
! <Condenser Loop Connector>,<Connector Type>,<Connector Name>,<Loop Name>,<Loop Type>,<Number of Inlets/Outlets>
! <Condenser Loop Connector Branches>,<Connector Node Count>,<Connector Type>,<Connector Name>,<Inlet Branch>,<Outlet Branch>,<Loop Name>,<Loop Type>
! <Condenser Loop Connector Nodes>,<Connector Node Count>,<Connector Type>,<Connector Name>,<Inlet Node>,<Outlet Node>,<Loop Name>,<Loop Type>
! <Condenser Loop Supply Connection>,<Condenser Loop Name>,<Supply Side Outlet Node Name>,<Demand Side Inlet Node Name>
! <Condenser Loop Return Connection>,<Condenser Loop Name>,<Demand Side Outlet Node Name>,<Supply Side Inlet Node Name>
! ===============================================================
! <# Controlled Zones>,<Number of Controlled Zones>
 #Controlled Zones,15
! <Controlled Zone>,<Controlled Zone Name>,<Equip List Name>,<Control List Name>,<Zone Node Name>,<# Inlet Nodes>,<# Exhaust Nodes>,<# Return Nodes>
! <Controlled Zone Inlet>,<Inlet Node Count>,<Controlled Zone Name>,<Supply Air Inlet Node Name>,<SD Sys:Cooling/Heating [DD:Cooling] Inlet Node Name>,<DD Sys:Heating Inlet Node Name>
! <Controlled Zone Exhaust>,<Exhaust Node Count>,<Controlled Zone Name>,<Exhaust Air Node Name>
 Controlled Zone,CORE_BOTTOM,CORE_BOTTOM EQUIPMENT,,CORE_BOTTOM AIR NODE,1,0,1
   Controlled Zone Inlet,1,CORE_BOTTOM,CORE_BOTTOM VAV BOX OUTLET NODE,CORE_BOTTOM VAV BOX INLET NODE,N/A
   Controlled Zone Return,1,CORE_BOTTOM,CORE_BOTTOM RETURN AIR NODE
 Controlled Zone,CORE_MID,CORE_MID EQUIPMENT,,CORE_MID AIR NODE,1,0,1
   Controlled Zone Inlet,1,CORE_MID,CORE_MID VAV BOX OUTLET NODE,CORE_MID VAV BOX INLET NODE,N/A
   Controlled Zone Return,1,CORE_MID,CORE_MID RETURN AIR NODE
 Controlled Zone,CORE_TOP,CORE_TOP EQUIPMENT,,CORE_TOP AIR NODE,1,0,1
   Controlled Zone Inlet,1,CORE_TOP,CORE_TOP VAV BOX OUTLET NODE,CORE_TOP VAV BOX INLET NODE,N/A
   Controlled Zone Return,1,CORE_TOP,CORE_TOP RETURN AIR NODE
 Controlled Zone,PERIMETER_TOP_ZN_3,PERIMETER_TOP_ZN_3 EQUIPMENT,,PERIMETER_TOP_ZN_3 AIR NODE,1,0,1
   Controlled Zone Inlet,1,PERIMETER_TOP_ZN_3,PERIMETER_TOP_ZN_3 VAV BOX OUTLET NODE,PERIMETER_TOP_ZN_3 VAV BOX INLET NODE,N/A
   Controlled Zone Return,1,PERIMETER_TOP_ZN_3,PERIMETER_TOP_ZN_3 RETURN AIR NODE
 Controlled Zone,PERIMETER_TOP_ZN_2,PERIMETER_TOP_ZN_2 EQUIPMENT,,PERIMETER_TOP_ZN_2 AIR NODE,1,0,1
   Controlled Zone Inlet,1,PERIMETER_TOP_ZN_2,PERIMETER_TOP_ZN_2 VAV BOX OUTLET NODE,PERIMETER_TOP_ZN_2 VAV BOX INLET NODE,N/A
   Controlled Zone Return,1,PERIMETER_TOP_ZN_2,PERIMETER_TOP_ZN_2 RETURN AIR NODE
 Controlled Zone,PERIMETER_TOP_ZN_1,PERIMETER_TOP_ZN_1 EQUIPMENT,,PERIMETER_TOP_ZN_1 AIR NODE,1,0,1
   Controlled Zone Inlet,1,PERIMETER_TOP_ZN_1,PERIMETER_TOP_ZN_1 VAV BOX OUTLET NODE,PERIMETER_TOP_ZN_1 VAV BOX INLET NODE,N/A
   Controlled Zone Return,1,PERIMETER_TOP_ZN_1,PERIMETER_TOP_ZN_1 RETURN AIR NODE
 Controlled Zone,PERIMETER_TOP_ZN_4,PERIMETER_TOP_ZN_4 EQUIPMENT,,PERIMETER_TOP_ZN_4 AIR NODE,1,0,1
   Controlled Zone Inlet,1,PERIMETER_TOP_ZN_4,PERIMETER_TOP_ZN_4 VAV BOX OUTLET NODE,PERIMETER_TOP_ZN_4 VAV BOX INLET NODE,N/A
   Controlled Zone Return,1,PERIMETER_TOP_ZN_4,PERIMETER_TOP_ZN_4 RETURN AIR NODE
 Controlled Zone,PERIMETER_BOT_ZN_3,PERIMETER_BOT_ZN_3 EQUIPMENT,,PERIMETER_BOT_ZN_3 AIR NODE,1,0,1
   Controlled Zone Inlet,1,PERIMETER_BOT_ZN_3,PERIMETER_BOT_ZN_3 VAV BOX OUTLET NODE,PERIMETER_BOT_ZN_3 VAV BOX INLET NODE,N/A
   Controlled Zone Return,1,PERIMETER_BOT_ZN_3,PERIMETER_BOT_ZN_3 RETURN AIR NODE
 Controlled Zone,PERIMETER_BOT_ZN_2,PERIMETER_BOT_ZN_2 EQUIPMENT,,PERIMETER_BOT_ZN_2 AIR NODE,1,0,1
   Controlled Zone Inlet,1,PERIMETER_BOT_ZN_2,PERIMETER_BOT_ZN_2 VAV BOX OUTLET NODE,PERIMETER_BOT_ZN_2 VAV BOX INLET NODE,N/A
   Controlled Zone Return,1,PERIMETER_BOT_ZN_2,PERIMETER_BOT_ZN_2 RETURN AIR NODE
 Controlled Zone,PERIMETER_BOT_ZN_1,PERIMETER_BOT_ZN_1 EQUIPMENT,,PERIMETER_BOT_ZN_1 AIR NODE,2,1,1
   Controlled Zone Inlet,1,PERIMETER_BOT_ZN_1,PERIMETER_BOT_ZN_1 VAV BOX OUTLET NODE,PERIMETER_BOT_ZN_1 VAV BOX INLET NODE,N/A
   Controlled Zone Inlet,2,PERIMETER_BOT_ZN_1,HPWH OUTLET NODE INTO ZONE,Undefined,N/A
   Controlled Zone Exhaust,1,PERIMETER_BOT_ZN_1,HPWH_OUTLET_EXHAUST NODE
   Controlled Zone Return,1,PERIMETER_BOT_ZN_1,PERIMETER_BOT_ZN_1 RETURN AIR NODE
 Controlled Zone,PERIMETER_BOT_ZN_4,PERIMETER_BOT_ZN_4 EQUIPMENT,,PERIMETER_BOT_ZN_4 AIR NODE,1,0,1
   Controlled Zone Inlet,1,PERIMETER_BOT_ZN_4,PERIMETER_BOT_ZN_4 VAV BOX OUTLET NODE,PERIMETER_BOT_ZN_4 VAV BOX INLET NODE,N/A
   Controlled Zone Return,1,PERIMETER_BOT_ZN_4,PERIMETER_BOT_ZN_4 RETURN AIR NODE
 Controlled Zone,PERIMETER_MID_ZN_3,PERIMETER_MID_ZN_3 EQUIPMENT,,PERIMETER_MID_ZN_3 AIR NODE,1,0,1
   Controlled Zone Inlet,1,PERIMETER_MID_ZN_3,PERIMETER_MID_ZN_3 VAV BOX OUTLET NODE,PERIMETER_MID_ZN_3 VAV BOX INLET NODE,N/A
   Controlled Zone Return,1,PERIMETER_MID_ZN_3,PERIMETER_MID_ZN_3 RETURN AIR NODE
 Controlled Zone,PERIMETER_MID_ZN_2,PERIMETER_MID_ZN_2 EQUIPMENT,,PERIMETER_MID_ZN_2 AIR NODE,1,0,1
   Controlled Zone Inlet,1,PERIMETER_MID_ZN_2,PERIMETER_MID_ZN_2 VAV BOX OUTLET NODE,PERIMETER_MID_ZN_2 VAV BOX INLET NODE,N/A
   Controlled Zone Return,1,PERIMETER_MID_ZN_2,PERIMETER_MID_ZN_2 RETURN AIR NODE
 Controlled Zone,PERIMETER_MID_ZN_1,PERIMETER_MID_ZN_1 EQUIPMENT,,PERIMETER_MID_ZN_1 AIR NODE,1,0,1
   Controlled Zone Inlet,1,PERIMETER_MID_ZN_1,PERIMETER_MID_ZN_1 VAV BOX OUTLET NODE,PERIMETER_MID_ZN_1 VAV BOX INLET NODE,N/A
   Controlled Zone Return,1,PERIMETER_MID_ZN_1,PERIMETER_MID_ZN_1 RETURN AIR NODE
 Controlled Zone,PERIMETER_MID_ZN_4,PERIMETER_MID_ZN_4 EQUIPMENT,,PERIMETER_MID_ZN_4 AIR NODE,1,0,1
   Controlled Zone Inlet,1,PERIMETER_MID_ZN_4,PERIMETER_MID_ZN_4 VAV BOX OUTLET NODE,PERIMETER_MID_ZN_4 VAV BOX INLET NODE,N/A
   Controlled Zone Return,1,PERIMETER_MID_ZN_4,PERIMETER_MID_ZN_4 RETURN AIR NODE
! ===============================================================
! <#Zone Equipment Lists>,<Number of Zone Equipment Lists>
 #Zone Equipment Lists,15
! <Zone Equipment List>,<Zone Equipment List Count>,<Zone Equipment List Name>,<Zone Name>,<Number of Components>
! <Zone Equipment Component>,<Component Count>,<Component Type>,<Component Name>,<Zone Name>,<Heating Priority>,<Cooling Priority>
 Zone Equipment List,1,CORE_BOTTOM EQUIPMENT,CORE_BOTTOM,1
   Zone Equipment Component,1,ZONEHVAC:AIRDISTRIBUTIONUNIT,CORE_BOTTOM VAV BOX,CORE_BOTTOM,1,1
 Zone Equipment List,5,CORE_MID EQUIPMENT,CORE_MID,1
   Zone Equipment Component,1,ZONEHVAC:AIRDISTRIBUTIONUNIT,CORE_MID VAV BOX,CORE_MID,1,1
 Zone Equipment List,6,CORE_TOP EQUIPMENT,CORE_TOP,1
   Zone Equipment Component,1,ZONEHVAC:AIRDISTRIBUTIONUNIT,CORE_TOP VAV BOX,CORE_TOP,1,1
 Zone Equipment List,7,PERIMETER_TOP_ZN_3 EQUIPMENT,PERIMETER_TOP_ZN_3,1
   Zone Equipment Component,1,ZONEHVAC:AIRDISTRIBUTIONUNIT,PERIMETER_TOP_ZN_3 VAV BOX,PERIMETER_TOP_ZN_3,1,1
 Zone Equipment List,8,PERIMETER_TOP_ZN_2 EQUIPMENT,PERIMETER_TOP_ZN_2,1
   Zone Equipment Component,1,ZONEHVAC:AIRDISTRIBUTIONUNIT,PERIMETER_TOP_ZN_2 VAV BOX,PERIMETER_TOP_ZN_2,1,1
 Zone Equipment List,9,PERIMETER_TOP_ZN_1 EQUIPMENT,PERIMETER_TOP_ZN_1,1
   Zone Equipment Component,1,ZONEHVAC:AIRDISTRIBUTIONUNIT,PERIMETER_TOP_ZN_1 VAV BOX,PERIMETER_TOP_ZN_1,1,1
 Zone Equipment List,10,PERIMETER_TOP_ZN_4 EQUIPMENT,PERIMETER_TOP_ZN_4,1
   Zone Equipment Component,1,ZONEHVAC:AIRDISTRIBUTIONUNIT,PERIMETER_TOP_ZN_4 VAV BOX,PERIMETER_TOP_ZN_4,1,1
 Zone Equipment List,11,PERIMETER_BOT_ZN_3 EQUIPMENT,PERIMETER_BOT_ZN_3,1
   Zone Equipment Component,1,ZONEHVAC:AIRDISTRIBUTIONUNIT,PERIMETER_BOT_ZN_3 VAV BOX,PERIMETER_BOT_ZN_3,1,1
 Zone Equipment List,12,PERIMETER_BOT_ZN_2 EQUIPMENT,PERIMETER_BOT_ZN_2,1
   Zone Equipment Component,1,ZONEHVAC:AIRDISTRIBUTIONUNIT,PERIMETER_BOT_ZN_2 VAV BOX,PERIMETER_BOT_ZN_2,1,1
 Zone Equipment List,13,PERIMETER_BOT_ZN_1 EQUIPMENT,PERIMETER_BOT_ZN_1,2
   Zone Equipment Component,1,ZONEHVAC:AIRDISTRIBUTIONUNIT,PERIMETER_BOT_ZN_1 VAV BOX,PERIMETER_BOT_ZN_1,1,1
   Zone Equipment Component,2,WATERHEATER:HEATPUMP:PUMPEDCONDENSER,SWHSYS1 HPWH,PERIMETER_BOT_ZN_1,2,2
 Zone Equipment List,14,PERIMETER_BOT_ZN_4 EQUIPMENT,PERIMETER_BOT_ZN_4,1
   Zone Equipment Component,1,ZONEHVAC:AIRDISTRIBUTIONUNIT,PERIMETER_BOT_ZN_4 VAV BOX,PERIMETER_BOT_ZN_4,1,1
 Zone Equipment List,15,PERIMETER_MID_ZN_3 EQUIPMENT,PERIMETER_MID_ZN_3,1
   Zone Equipment Component,1,ZONEHVAC:AIRDISTRIBUTIONUNIT,PERIMETER_MID_ZN_3 VAV BOX,PERIMETER_MID_ZN_3,1,1
 Zone Equipment List,16,PERIMETER_MID_ZN_2 EQUIPMENT,PERIMETER_MID_ZN_2,1
   Zone Equipment Component,1,ZONEHVAC:AIRDISTRIBUTIONUNIT,PERIMETER_MID_ZN_2 VAV BOX,PERIMETER_MID_ZN_2,1,1
 Zone Equipment List,17,PERIMETER_MID_ZN_1 EQUIPMENT,PERIMETER_MID_ZN_1,1
   Zone Equipment Component,1,ZONEHVAC:AIRDISTRIBUTIONUNIT,PERIMETER_MID_ZN_1 VAV BOX,PERIMETER_MID_ZN_1,1,1
 Zone Equipment List,18,PERIMETER_MID_ZN_4 EQUIPMENT,PERIMETER_MID_ZN_4,1
   Zone Equipment Component,1,ZONEHVAC:AIRDISTRIBUTIONUNIT,PERIMETER_MID_ZN_4 VAV BOX,PERIMETER_MID_ZN_4,1,1
! ===============================================================
! <#AirLoopHVACs>,<Number of AirLoopHVACs>
 #AirLoopHVACs,3
! <AirLoopHVAC>,<Air Loop Name>,<# Return Nodes>,<# Supply Nodes>,<# Zones Cooled>,<# Zones Heated>,<Outdoor Air Used>
! <AirLoop Return Connections>,<Connection Count>,<AirLoopHVAC Name>,<Zn Eqp Return Node #>,<Zn Eqp Return Node Name>,<AirLoop Return Node #>,<Air Loop Return Node Name>
! <AirLoop Supply Connections>,<Connection Count>,<AirLoopHVAC Name>,<Zn Eqp Supply Node #>,<Zn Eqp Supply Node Name>,<AirLoop Supply Node #>,<Air Loop Supply Node Name>
! <Cooled Zone Info>,<Cooled Zone Count>,<Cooled Zone Name>,<Cooled Zone Inlet Node #>,<Cooled Zone Inlet Node Name>,<AirLoopHVAC Name>
! <Heated Zone Info>,<Heated Zone Count>,<Heated Zone Name>,<Heated Zone Inlet Node #>,<Heated Zone Inlet Node Name>,<AirLoopHVAC Name>
! <Outdoor Air Connections>,<OA Inlet Node #>,<OA Return Air Inlet Node Name>,<OA Outlet Node #>,<OA Mixed Air Outlet Node Name>,<AirLoopHVAC Name>
! <AirLoopHVAC Connector>,<Connector Type>,<Connector Name>,<Loop Name>,<Loop Type>,<Number of Inlets/Outlets>
! <AirLoopHVAC Connector Branches>,<Connector Node Count>,<Connector Type>,<Connector Name>,<Inlet Branch>,<Outlet Branch>,<Loop Name>,<Loop Type>
! <AirLoopHVAC Connector Nodes>,<Connector Node Count>,<Connector Type>,<Connector Name>,<Inlet Node>,<Outlet Node>,<Loop Name>,<Loop Type>
 AirLoopHVAC,PACU_VAV_BOT,1,1,5,0,Yes
   AirLoop Return Connections,1,PACU_VAV_BOT,113,PACU_VAV_BOT ZONE EQUIPMENT OUTLET NODE,20,PACU_VAV_BOT SUPPLY EQUIPMENT INLET NODE
   AirLoop Supply Connections,1,PACU_VAV_BOT,110,PACU_VAV_BOT ZONE EQUIPMENT INLET NODE,24,PACU_VAV_BOT SUPPLY EQUIPMENT OUTLET NODE
   Cooled Zone Info,1,CORE_BOTTOM,2,CORE_BOTTOM VAV BOX OUTLET NODE,PACU_VAV_BOT
   Cooled Zone Info,2,PERIMETER_BOT_ZN_1,3,PERIMETER_BOT_ZN_1 VAV BOX OUTLET NODE,PACU_VAV_BOT
   Cooled Zone Info,3,PERIMETER_BOT_ZN_2,5,PERIMETER_BOT_ZN_2 VAV BOX OUTLET NODE,PACU_VAV_BOT
   Cooled Zone Info,4,PERIMETER_BOT_ZN_3,6,PERIMETER_BOT_ZN_3 VAV BOX OUTLET NODE,PACU_VAV_BOT
   Cooled Zone Info,5,PERIMETER_BOT_ZN_4,7,PERIMETER_BOT_ZN_4 VAV BOX OUTLET NODE,PACU_VAV_BOT
   Outdoor Air Connections,20,PACU_VAV_BOT SUPPLY EQUIPMENT INLET NODE,21,PACU_VAV_BOT_OA-PACU_VAV_BOT_COOLCNODE,PACU_VAV_BOT
 AirLoopHVAC,PACU_VAV_MID,1,1,5,0,Yes
   AirLoop Return Connections,1,PACU_VAV_MID,114,PACU_VAV_MID ZONE EQUIPMENT OUTLET NODE,25,PACU_VAV_MID SUPPLY EQUIPMENT INLET NODE
   AirLoop Supply Connections,1,PACU_VAV_MID,111,PACU_VAV_MID ZONE EQUIPMENT INLET NODE,29,PACU_VAV_MID SUPPLY EQUIPMENT OUTLET NODE
   Cooled Zone Info,1,CORE_MID,9,CORE_MID VAV BOX OUTLET NODE,PACU_VAV_MID
   Cooled Zone Info,2,PERIMETER_MID_ZN_1,10,PERIMETER_MID_ZN_1 VAV BOX OUTLET NODE,PACU_VAV_MID
   Cooled Zone Info,3,PERIMETER_MID_ZN_2,11,PERIMETER_MID_ZN_2 VAV BOX OUTLET NODE,PACU_VAV_MID
   Cooled Zone Info,4,PERIMETER_MID_ZN_3,12,PERIMETER_MID_ZN_3 VAV BOX OUTLET NODE,PACU_VAV_MID
   Cooled Zone Info,5,PERIMETER_MID_ZN_4,13,PERIMETER_MID_ZN_4 VAV BOX OUTLET NODE,PACU_VAV_MID
   Outdoor Air Connections,25,PACU_VAV_MID SUPPLY EQUIPMENT INLET NODE,26,PACU_VAV_MID_OA-PACU_VAV_MID_COOLCNODE,PACU_VAV_MID
 AirLoopHVAC,PACU_VAV_TOP,1,1,5,0,Yes
   AirLoop Return Connections,1,PACU_VAV_TOP,115,PACU_VAV_TOP ZONE EQUIPMENT OUTLET NODE,30,PACU_VAV_TOP SUPPLY EQUIPMENT INLET NODE
   AirLoop Supply Connections,1,PACU_VAV_TOP,112,PACU_VAV_TOP ZONE EQUIPMENT INLET NODE,34,PACU_VAV_TOP SUPPLY EQUIPMENT OUTLET NODE
   Cooled Zone Info,1,CORE_TOP,15,CORE_TOP VAV BOX OUTLET NODE,PACU_VAV_TOP
   Cooled Zone Info,2,PERIMETER_TOP_ZN_1,16,PERIMETER_TOP_ZN_1 VAV BOX OUTLET NODE,PACU_VAV_TOP
   Cooled Zone Info,3,PERIMETER_TOP_ZN_2,17,PERIMETER_TOP_ZN_2 VAV BOX OUTLET NODE,PACU_VAV_TOP
   Cooled Zone Info,4,PERIMETER_TOP_ZN_3,18,PERIMETER_TOP_ZN_3 VAV BOX OUTLET NODE,PACU_VAV_TOP
   Cooled Zone Info,5,PERIMETER_TOP_ZN_4,19,PERIMETER_TOP_ZN_4 VAV BOX OUTLET NODE,PACU_VAV_TOP
   Outdoor Air Connections,30,PACU_VAV_TOP SUPPLY EQUIPMENT INLET NODE,31,PACU_VAV_TOP_OA-PACU_VAV_TOP_COOLCNODE,PACU_VAV_TOP
! ===============================================================
! <#Parent Node Connections>,<Number of Parent Node Connections>
 #Parent Node Connections,127
! <Parent Node Connection>,<Node Name>,<Node ObjectType>,<Node ObjectName>,<Node ConnectionType>,<Node FluidStream>
 Parent Node Connection,PACU_VAV_BOT SUPPLY EQUIPMENT INLET NODE,BRANCH,PACU_VAV_BOT AIR LOOP MAIN BRANCH,Inlet,1
 Parent Node Connection,PACU_VAV_BOT_OA-PACU_VAV_BOT_COOLCNODE,BRANCH,PACU_VAV_BOT AIR LOOP MAIN BRANCH,Internal,1
 Parent Node Connection,PACU_VAV_BOT_COOLC-PACU_VAV_BOT_HEATCNODE,BRANCH,PACU_VAV_BOT AIR LOOP MAIN BRANCH,Internal,1
 Parent Node Connection,PACU_VAV_BOT_HEATC-PACU_VAV_BOT FANNODE,BRANCH,PACU_VAV_BOT AIR LOOP MAIN BRANCH,Internal,1
 Parent Node Connection,PACU_VAV_BOT SUPPLY EQUIPMENT OUTLET NODE,BRANCH,PACU_VAV_BOT AIR LOOP MAIN BRANCH,Outlet,1
 Parent Node Connection,PACU_VAV_MID SUPPLY EQUIPMENT INLET NODE,BRANCH,PACU_VAV_MID AIR LOOP MAIN BRANCH,Inlet,1
 Parent Node Connection,PACU_VAV_MID_OA-PACU_VAV_MID_COOLCNODE,BRANCH,PACU_VAV_MID AIR LOOP MAIN BRANCH,Internal,1
 Parent Node Connection,PACU_VAV_MID_COOLC-PACU_VAV_MID_HEATCNODE,BRANCH,PACU_VAV_MID AIR LOOP MAIN BRANCH,Internal,1
 Parent Node Connection,PACU_VAV_MID_HEATC-PACU_VAV_MID FANNODE,BRANCH,PACU_VAV_MID AIR LOOP MAIN BRANCH,Internal,1
 Parent Node Connection,PACU_VAV_MID SUPPLY EQUIPMENT OUTLET NODE,BRANCH,PACU_VAV_MID AIR LOOP MAIN BRANCH,Outlet,1
 Parent Node Connection,PACU_VAV_TOP SUPPLY EQUIPMENT INLET NODE,BRANCH,PACU_VAV_TOP AIR LOOP MAIN BRANCH,Inlet,1
 Parent Node Connection,PACU_VAV_TOP_OA-PACU_VAV_TOP_COOLCNODE,BRANCH,PACU_VAV_TOP AIR LOOP MAIN BRANCH,Internal,1
 Parent Node Connection,PACU_VAV_TOP_COOLC-PACU_VAV_TOP_HEATCNODE,BRANCH,PACU_VAV_TOP AIR LOOP MAIN BRANCH,Internal,1
 Parent Node Connection,PACU_VAV_TOP_HEATC-PACU_VAV_TOP FANNODE,BRANCH,PACU_VAV_TOP AIR LOOP MAIN BRANCH,Internal,1
 Parent Node Connection,PACU_VAV_TOP SUPPLY EQUIPMENT OUTLET NODE,BRANCH,PACU_VAV_TOP AIR LOOP MAIN BRANCH,Outlet,1
 Parent Node Connection,SWHSYS1 SUPPLY INLET NODE,BRANCH,SWHSYS1 SUPPLY INLET BRANCH,Inlet,1
 Parent Node Connection,SWHSYS1 PUMP-WATER HEATERNODEVIACONNECTOR,BRANCH,SWHSYS1 SUPPLY INLET BRANCH,Outlet,1
 Parent Node Connection,SWHSYS1 PUMP-WATER HEATERNODE,BRANCH,SWHSYS1 SUPPLY EQUIPMENT BRANCH,Inlet,1
 Parent Node Connection,SWHSYS1 SUPPLY EQUIPMENT OUTLET NODE,BRANCH,SWHSYS1 SUPPLY EQUIPMENT BRANCH,Outlet,1
 Parent Node Connection,SWHSYS1 SUPPLY EQUIP BYPASS INLET NODE,BRANCH,SWHSYS1 SUPPLY EQUIPMENT BYPASS BRANCH,Inlet,1
 Parent Node Connection,SWHSYS1 SUPPLY EQUIP BYPASS OUTLET NODE,BRANCH,SWHSYS1 SUPPLY EQUIPMENT BYPASS BRANCH,Outlet,1
 Parent Node Connection,SWHSYS1 SUPPLY MIXER-SWHSYS1 SUPPLY OUTLET PIPE,BRANCH,SWHSYS1 SUPPLY OUTLET BRANCH,Inlet,1
 Parent Node Connection,SWHSYS1 SUPPLY OUTLET NODE,BRANCH,SWHSYS1 SUPPLY OUTLET BRANCH,Outlet,1
 Parent Node Connection,SWHSYS1 DEMAND INLET NODE,BRANCH,SWHSYS1 DEMAND INLET BRANCH,Inlet,1
 Parent Node Connection,SWHSYS1 DEMAND INLET PIPE-SWHSYS1 DEMAND MIXER,BRANCH,SWHSYS1 DEMAND INLET BRANCH,Outlet,1
 Parent Node Connection,SWHSYS1 DEMAND BYPASS PIPE INLET NODE,BRANCH,SWHSYS1 DEMAND BYPASS BRANCH,Inlet,1
 Parent Node Connection,SWHSYS1 DEMAND BYPASS PIPE OUTLET NODE,BRANCH,SWHSYS1 DEMAND BYPASS BRANCH,Outlet,1
 Parent Node Connection,SWHSYS1 DEMAND MIXER-SWHSYS1 DEMAND OUTLET PIPE,BRANCH,SWHSYS1 DEMAND OUTLET BRANCH,Inlet,1
 Parent Node Connection,SWHSYS1 DEMAND OUTLET NODE,BRANCH,SWHSYS1 DEMAND OUTLET BRANCH,Outlet,1
 Parent Node Connection,CORE_BOTTOM SUB CAT WATER INLET NODE,BRANCH,SWH DEMAND LOAD BRANCH CORE_BOTTOM SUB CAT,Inlet,1
 Parent Node Connection,CORE_BOTTOM SUB CAT WATER OUTLET NODE,BRANCH,SWH DEMAND LOAD BRANCH CORE_BOTTOM SUB CAT,Outlet,1
 Parent Node Connection,CORE_MID SUB CAT WATER INLET NODE,BRANCH,SWH DEMAND LOAD BRANCH CORE_MID SUB CAT,Inlet,1
 Parent Node Connection,CORE_MID SUB CAT WATER OUTLET NODE,BRANCH,SWH DEMAND LOAD BRANCH CORE_MID SUB CAT,Outlet,1
 Parent Node Connection,CORE_TOP SUB CAT WATER INLET NODE,BRANCH,SWH DEMAND LOAD BRANCH CORE_TOP SUB CAT,Inlet,1
 Parent Node Connection,CORE_TOP SUB CAT WATER OUTLET NODE,BRANCH,SWH DEMAND LOAD BRANCH CORE_TOP SUB CAT,Outlet,1
 Parent Node Connection,PERIMETER_TOP_ZN_3 SUB CAT WATER INLET NODE,BRANCH,SWH DEMAND LOAD BRANCH PERIMETER_TOP_ZN_3 SUB CAT,Inlet,1
 Parent Node Connection,PERIMETER_TOP_ZN_3 SUB CAT WATER OUTLET NODE,BRANCH,SWH DEMAND LOAD BRANCH PERIMETER_TOP_ZN_3 SUB CAT,Outlet,1
 Parent Node Connection,PERIMETER_TOP_ZN_2 SUB CAT WATER INLET NODE,BRANCH,SWH DEMAND LOAD BRANCH PERIMETER_TOP_ZN_2 SUB CAT,Inlet,1
 Parent Node Connection,PERIMETER_TOP_ZN_2 SUB CAT WATER OUTLET NODE,BRANCH,SWH DEMAND LOAD BRANCH PERIMETER_TOP_ZN_2 SUB CAT,Outlet,1
 Parent Node Connection,PERIMETER_TOP_ZN_1 SUB CAT WATER INLET NODE,BRANCH,SWH DEMAND LOAD BRANCH PERIMETER_TOP_ZN_1 SUB CAT,Inlet,1
 Parent Node Connection,PERIMETER_TOP_ZN_1 SUB CAT WATER OUTLET NODE,BRANCH,SWH DEMAND LOAD BRANCH PERIMETER_TOP_ZN_1 SUB CAT,Outlet,1
 Parent Node Connection,PERIMETER_TOP_ZN_4 SUB CAT WATER INLET NODE,BRANCH,SWH DEMAND LOAD BRANCH PERIMETER_TOP_ZN_4 SUB CAT,Inlet,1
 Parent Node Connection,PERIMETER_TOP_ZN_4 SUB CAT WATER OUTLET NODE,BRANCH,SWH DEMAND LOAD BRANCH PERIMETER_TOP_ZN_4 SUB CAT,Outlet,1
 Parent Node Connection,PERIMETER_BOT_ZN_3 SUB CAT WATER INLET NODE,BRANCH,SWH DEMAND LOAD BRANCH PERIMETER_BOT_ZN_3 SUB CAT,Inlet,1
 Parent Node Connection,PERIMETER_BOT_ZN_3 SUB CAT WATER OUTLET NODE,BRANCH,SWH DEMAND LOAD BRANCH PERIMETER_BOT_ZN_3 SUB CAT,Outlet,1
 Parent Node Connection,PERIMETER_BOT_ZN_2 SUB CAT WATER INLET NODE,BRANCH,SWH DEMAND LOAD BRANCH PERIMETER_BOT_ZN_2 SUB CAT,Inlet,1
 Parent Node Connection,PERIMETER_BOT_ZN_2 SUB CAT WATER OUTLET NODE,BRANCH,SWH DEMAND LOAD BRANCH PERIMETER_BOT_ZN_2 SUB CAT,Outlet,1
 Parent Node Connection,PERIMETER_BOT_ZN_1 SUB CAT WATER INLET NODE,BRANCH,SWH DEMAND LOAD BRANCH PERIMETER_BOT_ZN_1 SUB CAT,Inlet,1
 Parent Node Connection,PERIMETER_BOT_ZN_1 SUB CAT WATER OUTLET NODE,BRANCH,SWH DEMAND LOAD BRANCH PERIMETER_BOT_ZN_1 SUB CAT,Outlet,1
 Parent Node Connection,PERIMETER_BOT_ZN_4 SUB CAT WATER INLET NODE,BRANCH,SWH DEMAND LOAD BRANCH PERIMETER_BOT_ZN_4 SUB CAT,Inlet,1
 Parent Node Connection,PERIMETER_BOT_ZN_4 SUB CAT WATER OUTLET NODE,BRANCH,SWH DEMAND LOAD BRANCH PERIMETER_BOT_ZN_4 SUB CAT,Outlet,1
 Parent Node Connection,PERIMETER_MID_ZN_3 SUB CAT WATER INLET NODE,BRANCH,SWH DEMAND LOAD BRANCH PERIMETER_MID_ZN_3 SUB CAT,Inlet,1
 Parent Node Connection,PERIMETER_MID_ZN_3 SUB CAT WATER OUTLET NODE,BRANCH,SWH DEMAND LOAD BRANCH PERIMETER_MID_ZN_3 SUB CAT,Outlet,1
 Parent Node Connection,PERIMETER_MID_ZN_2 SUB CAT WATER INLET NODE,BRANCH,SWH DEMAND LOAD BRANCH PERIMETER_MID_ZN_2 SUB CAT,Inlet,1
 Parent Node Connection,PERIMETER_MID_ZN_2 SUB CAT WATER OUTLET NODE,BRANCH,SWH DEMAND LOAD BRANCH PERIMETER_MID_ZN_2 SUB CAT,Outlet,1
 Parent Node Connection,PERIMETER_MID_ZN_1 SUB CAT WATER INLET NODE,BRANCH,SWH DEMAND LOAD BRANCH PERIMETER_MID_ZN_1 SUB CAT,Inlet,1
 Parent Node Connection,PERIMETER_MID_ZN_1 SUB CAT WATER OUTLET NODE,BRANCH,SWH DEMAND LOAD BRANCH PERIMETER_MID_ZN_1 SUB CAT,Outlet,1
 Parent Node Connection,PERIMETER_MID_ZN_4 SUB CAT WATER INLET NODE,BRANCH,SWH DEMAND LOAD BRANCH PERIMETER_MID_ZN_4 SUB CAT,Inlet,1
 Parent Node Connection,PERIMETER_MID_ZN_4 SUB CAT WATER OUTLET NODE,BRANCH,SWH DEMAND LOAD BRANCH PERIMETER_MID_ZN_4 SUB CAT,Outlet,1
 Parent Node Connection,PACU_VAV_BOT ZONE EQUIPMENT INLET NODE,AIRLOOPHVAC:SUPPLYPATH,PACU_VAV_BOT,Inlet,1
 Parent Node Connection,PACU_VAV_MID ZONE EQUIPMENT INLET NODE,AIRLOOPHVAC:SUPPLYPATH,PACU_VAV_MID,Inlet,1
 Parent Node Connection,PACU_VAV_TOP ZONE EQUIPMENT INLET NODE,AIRLOOPHVAC:SUPPLYPATH,PACU_VAV_TOP,Inlet,1
 Parent Node Connection,PACU_VAV_BOT ZONE EQUIPMENT OUTLET NODE,AIRLOOPHVAC:RETURNPATH,PACU_VAV_BOT RETURN AIR PATH,Outlet,1
 Parent Node Connection,PACU_VAV_MID ZONE EQUIPMENT OUTLET NODE,AIRLOOPHVAC:RETURNPATH,PACU_VAV_MID RETURN AIR PATH,Outlet,1
 Parent Node Connection,PACU_VAV_TOP ZONE EQUIPMENT OUTLET NODE,AIRLOOPHVAC:RETURNPATH,PACU_VAV_TOP RETURN AIR PATH,Outlet,1
 Parent Node Connection,SWHSYS1 HPWH WATER INLET,WATERHEATER:HEATPUMP:PUMPEDCONDENSER,SWHSYS1 HPWH,Inlet,2
 Parent Node Connection,SWHSYS1 HPWH WATER OUTLET,WATERHEATER:HEATPUMP:PUMPEDCONDENSER,SWHSYS1 HPWH,Outlet,2
 Parent Node Connection,SWHSYS1 PUMP-WATER HEATERNODE,WATERHEATER:HEATPUMP:PUMPEDCONDENSER,SWHSYS1 HPWH,Inlet,1
 Parent Node Connection,SWHSYS1 SUPPLY EQUIPMENT OUTLET NODE,WATERHEATER:HEATPUMP:PUMPEDCONDENSER,SWHSYS1 HPWH,Outlet,1
 Parent Node Connection,HPWH_OUTLET_EXHAUST NODE,WATERHEATER:HEATPUMP:PUMPEDCONDENSER,SWHSYS1 HPWH,Inlet,1
 Parent Node Connection,HPWH OUTLET NODE INTO ZONE,WATERHEATER:HEATPUMP:PUMPEDCONDENSER,SWHSYS1 HPWH,Outlet,1
 Parent Node Connection,SWHSYS1 SUPPLY INLET NODE,PLANTLOOP,SWHSYS1,Inlet,1
 Parent Node Connection,SWHSYS1 SUPPLY OUTLET NODE,PLANTLOOP,SWHSYS1,Outlet,1
 Parent Node Connection,SWHSYS1 DEMAND INLET NODE,PLANTLOOP,SWHSYS1,Inlet,1
 Parent Node Connection,SWHSYS1 DEMAND OUTLET NODE,PLANTLOOP,SWHSYS1,Outlet,1
 Parent Node Connection,SWHSYS1 SUPPLY OUTLET NODE,PLANTLOOP,SWHSYS1,Sensor,1
 Parent Node Connection,CORE_BOTTOM VAV BOX OUTLET NODE,ZONEHVAC:AIRDISTRIBUTIONUNIT,CORE_BOTTOM VAV BOX,Outlet,1
 Parent Node Connection,PERIMETER_BOT_ZN_1 VAV BOX OUTLET NODE,ZONEHVAC:AIRDISTRIBUTIONUNIT,PERIMETER_BOT_ZN_1 VAV BOX,Outlet,1
 Parent Node Connection,PERIMETER_BOT_ZN_2 VAV BOX OUTLET NODE,ZONEHVAC:AIRDISTRIBUTIONUNIT,PERIMETER_BOT_ZN_2 VAV BOX,Outlet,1
 Parent Node Connection,PERIMETER_BOT_ZN_3 VAV BOX OUTLET NODE,ZONEHVAC:AIRDISTRIBUTIONUNIT,PERIMETER_BOT_ZN_3 VAV BOX,Outlet,1
 Parent Node Connection,PERIMETER_BOT_ZN_4 VAV BOX OUTLET NODE,ZONEHVAC:AIRDISTRIBUTIONUNIT,PERIMETER_BOT_ZN_4 VAV BOX,Outlet,1
 Parent Node Connection,CORE_MID VAV BOX OUTLET NODE,ZONEHVAC:AIRDISTRIBUTIONUNIT,CORE_MID VAV BOX,Outlet,1
 Parent Node Connection,PERIMETER_MID_ZN_1 VAV BOX OUTLET NODE,ZONEHVAC:AIRDISTRIBUTIONUNIT,PERIMETER_MID_ZN_1 VAV BOX,Outlet,1
 Parent Node Connection,PERIMETER_MID_ZN_2 VAV BOX OUTLET NODE,ZONEHVAC:AIRDISTRIBUTIONUNIT,PERIMETER_MID_ZN_2 VAV BOX,Outlet,1
 Parent Node Connection,PERIMETER_MID_ZN_3 VAV BOX OUTLET NODE,ZONEHVAC:AIRDISTRIBUTIONUNIT,PERIMETER_MID_ZN_3 VAV BOX,Outlet,1
 Parent Node Connection,PERIMETER_MID_ZN_4 VAV BOX OUTLET NODE,ZONEHVAC:AIRDISTRIBUTIONUNIT,PERIMETER_MID_ZN_4 VAV BOX,Outlet,1
[...]
 Non-Parent Node Connection,PERIMETER_TOP_ZN_4 SUB CAT WATER OUTLET NODE,CONNECTOR:MIXER,SWHSYS1 DEMAND MIXER,Inlet,1
 Non-Parent Node Connection,PERIMETER_BOT_ZN_3 SUB CAT WATER OUTLET NODE,CONNECTOR:MIXER,SWHSYS1 DEMAND MIXER,Inlet,1
 Non-Parent Node Connection,PERIMETER_BOT_ZN_2 SUB CAT WATER OUTLET NODE,CONNECTOR:MIXER,SWHSYS1 DEMAND MIXER,Inlet,1
 Non-Parent Node Connection,PERIMETER_BOT_ZN_1 SUB CAT WATER OUTLET NODE,CONNECTOR:MIXER,SWHSYS1 DEMAND MIXER,Inlet,1
 Non-Parent Node Connection,PERIMETER_BOT_ZN_4 SUB CAT WATER OUTLET NODE,CONNECTOR:MIXER,SWHSYS1 DEMAND MIXER,Inlet,1
 Non-Parent Node Connection,PERIMETER_MID_ZN_3 SUB CAT WATER OUTLET NODE,CONNECTOR:MIXER,SWHSYS1 DEMAND MIXER,Inlet,1
 Non-Parent Node Connection,PERIMETER_MID_ZN_2 SUB CAT WATER OUTLET NODE,CONNECTOR:MIXER,SWHSYS1 DEMAND MIXER,Inlet,1
 Non-Parent Node Connection,PERIMETER_MID_ZN_1 SUB CAT WATER OUTLET NODE,CONNECTOR:MIXER,SWHSYS1 DEMAND MIXER,Inlet,1
 Non-Parent Node Connection,PERIMETER_MID_ZN_4 SUB CAT WATER OUTLET NODE,CONNECTOR:MIXER,SWHSYS1 DEMAND MIXER,Inlet,1
 Non-Parent Node Connection,SWHSYS1 DEMAND BYPASS PIPE OUTLET NODE,CONNECTOR:MIXER,SWHSYS1 DEMAND MIXER,Inlet,1
 Non-Parent Node Connection,SWHSYS1 PUMP-WATER HEATERNODEVIACONNECTOR,CONNECTOR:SPLITTER,SWHSYS1 SUPPLY SPLITTER,Inlet,1
 Non-Parent Node Connection,SWHSYS1 PUMP-WATER HEATERNODE,CONNECTOR:SPLITTER,SWHSYS1 SUPPLY SPLITTER,Outlet,1
 Non-Parent Node Connection,SWHSYS1 SUPPLY EQUIP BYPASS INLET NODE,CONNECTOR:SPLITTER,SWHSYS1 SUPPLY SPLITTER,Outlet,1
 Non-Parent Node Connection,SWHSYS1 SUPPLY MIXER-SWHSYS1 SUPPLY OUTLET PIPE,CONNECTOR:MIXER,SWHSYS1 SUPPLY MIXER,Outlet,1
 Non-Parent Node Connection,SWHSYS1 SUPPLY EQUIPMENT OUTLET NODE,CONNECTOR:MIXER,SWHSYS1 SUPPLY MIXER,Inlet,1
 Non-Parent Node Connection,SWHSYS1 SUPPLY EQUIP BYPASS OUTLET NODE,CONNECTOR:MIXER,SWHSYS1 SUPPLY MIXER,Inlet,1
 Non-Parent Node Connection,PACU_VAV_BOT ZONE EQUIPMENT INLET NODE,AIRLOOPHVAC:ZONESPLITTER,PACU_VAV_BOT SUPPLY AIR SPLITTER,Inlet,1
 Non-Parent Node Connection,CORE_BOTTOM VAV BOX INLET NODE,AIRLOOPHVAC:ZONESPLITTER,PACU_VAV_BOT SUPPLY AIR SPLITTER,Outlet,1
 Non-Parent Node Connection,PERIMETER_BOT_ZN_1 VAV BOX INLET NODE,AIRLOOPHVAC:ZONESPLITTER,PACU_VAV_BOT SUPPLY AIR SPLITTER,Outlet,1
 Non-Parent Node Connection,PERIMETER_BOT_ZN_2 VAV BOX INLET NODE,AIRLOOPHVAC:ZONESPLITTER,PACU_VAV_BOT SUPPLY AIR SPLITTER,Outlet,1
 Non-Parent Node Connection,PERIMETER_BOT_ZN_3 VAV BOX INLET NODE,AIRLOOPHVAC:ZONESPLITTER,PACU_VAV_BOT SUPPLY AIR SPLITTER,Outlet,1
 Non-Parent Node Connection,PERIMETER_BOT_ZN_4 VAV BOX INLET NODE,AIRLOOPHVAC:ZONESPLITTER,PACU_VAV_BOT SUPPLY AIR SPLITTER,Outlet,1
 Non-Parent Node Connection,PACU_VAV_MID ZONE EQUIPMENT INLET NODE,AIRLOOPHVAC:ZONESPLITTER,PACU_VAV_MID SUPPLY AIR SPLITTER,Inlet,1
 Non-Parent Node Connection,CORE_MID VAV BOX INLET NODE,AIRLOOPHVAC:ZONESPLITTER,PACU_VAV_MID SUPPLY AIR SPLITTER,Outlet,1
 Non-Parent Node Connection,PERIMETER_MID_ZN_1 VAV BOX INLET NODE,AIRLOOPHVAC:ZONESPLITTER,PACU_VAV_MID SUPPLY AIR SPLITTER,Outlet,1
 Non-Parent Node Connection,PERIMETER_MID_ZN_2 VAV BOX INLET NODE,AIRLOOPHVAC:ZONESPLITTER,PACU_VAV_MID SUPPLY AIR SPLITTER,Outlet,1
 Non-Parent Node Connection,PERIMETER_MID_ZN_3 VAV BOX INLET NODE,AIRLOOPHVAC:ZONESPLITTER,PACU_VAV_MID SUPPLY AIR SPLITTER,Outlet,1
 Non-Parent Node Connection,PERIMETER_MID_ZN_4 VAV BOX INLET NODE,AIRLOOPHVAC:ZONESPLITTER,PACU_VAV_MID SUPPLY AIR SPLITTER,Outlet,1
 Non-Parent Node Connection,PACU_VAV_TOP ZONE EQUIPMENT INLET NODE,AIRLOOPHVAC:ZONESPLITTER,PACU_VAV_TOP SUPPLY AIR SPLITTER,Inlet,1
 Non-Parent Node Connection,CORE_TOP VAV BOX INLET NODE,AIRLOOPHVAC:ZONESPLITTER,PACU_VAV_TOP SUPPLY AIR SPLITTER,Outlet,1
 Non-Parent Node Connection,PERIMETER_TOP_ZN_1 VAV BOX INLET NODE,AIRLOOPHVAC:ZONESPLITTER,PACU_VAV_TOP SUPPLY AIR SPLITTER,Outlet,1
 Non-Parent Node Connection,PERIMETER_TOP_ZN_2 VAV BOX INLET NODE,AIRLOOPHVAC:ZONESPLITTER,PACU_VAV_TOP SUPPLY AIR SPLITTER,Outlet,1
 Non-Parent Node Connection,PERIMETER_TOP_ZN_3 VAV BOX INLET NODE,AIRLOOPHVAC:ZONESPLITTER,PACU_VAV_TOP SUPPLY AIR SPLITTER,Outlet,1
 Non-Parent Node Connection,PERIMETER_TOP_ZN_4 VAV BOX INLET NODE,AIRLOOPHVAC:ZONESPLITTER,PACU_VAV_TOP SUPPLY AIR SPLITTER,Outlet,1
 Non-Parent Node Connection,CORE_BOTTOM VAV BOX DAMPER NODE,AIRTERMINAL:SINGLEDUCT:VAV:REHEAT,CORE_BOTTOM VAV BOX COMPONENT,Outlet,1
 Non-Parent Node Connection,CORE_BOTTOM VAV BOX INLET NODE,AIRTERMINAL:SINGLEDUCT:VAV:REHEAT,CORE_BOTTOM VAV BOX COMPONENT,Inlet,1
 Non-Parent Node Connection,PERIMETER_BOT_ZN_1 VAV BOX DAMPER NODE,AIRTERMINAL:SINGLEDUCT:VAV:REHEAT,PERIMETER_BOT_ZN_1 VAV BOX COMPONENT,Outlet,1
 Non-Parent Node Connection,PERIMETER_BOT_ZN_1 VAV BOX INLET NODE,AIRTERMINAL:SINGLEDUCT:VAV:REHEAT,PERIMETER_BOT_ZN_1 VAV BOX COMPONENT,Inlet,1
 Non-Parent Node Connection,PERIMETER_BOT_ZN_2 VAV BOX DAMPER NODE,AIRTERMINAL:SINGLEDUCT:VAV:REHEAT,PERIMETER_BOT_ZN_2 VAV BOX COMPONENT,Outlet,1
 Non-Parent Node Connection,PERIMETER_BOT_ZN_2 VAV BOX INLET NODE,AIRTERMINAL:SINGLEDUCT:VAV:REHEAT,PERIMETER_BOT_ZN_2 VAV BOX COMPONENT,Inlet,1
 Non-Parent Node Connection,PERIMETER_BOT_ZN_3 VAV BOX DAMPER NODE,AIRTERMINAL:SINGLEDUCT:VAV:REHEAT,PERIMETER_BOT_ZN_3 VAV BOX COMPONENT,Outlet,1
 Non-Parent Node Connection,PERIMETER_BOT_ZN_3 VAV BOX INLET NODE,AIRTERMINAL:SINGLEDUCT:VAV:REHEAT,PERIMETER_BOT_ZN_3 VAV BOX COMPONENT,Inlet,1
 Non-Parent Node Connection,PERIMETER_BOT_ZN_4 VAV BOX DAMPER NODE,AIRTERMINAL:SINGLEDUCT:VAV:REHEAT,PERIMETER_BOT_ZN_4 VAV BOX COMPONENT,Outlet,1
 Non-Parent Node Connection,PERIMETER_BOT_ZN_4 VAV BOX INLET NODE,AIRTERMINAL:SINGLEDUCT:VAV:REHEAT,PERIMETER_BOT_ZN_4 VAV BOX COMPONENT,Inlet,1
 Non-Parent Node Connection,CORE_MID VAV BOX DAMPER NODE,AIRTERMINAL:SINGLEDUCT:VAV:REHEAT,CORE_MID VAV BOX COMPONENT,Outlet,1
 Non-Parent Node Connection,CORE_MID VAV BOX INLET NODE,AIRTERMINAL:SINGLEDUCT:VAV:REHEAT,CORE_MID VAV BOX COMPONENT,Inlet,1
 Non-Parent Node Connection,PERIMETER_MID_ZN_1 VAV BOX DAMPER NODE,AIRTERMINAL:SINGLEDUCT:VAV:REHEAT,PERIMETER_MID_ZN_1 VAV BOX COMPONENT,Outlet,1
 Non-Parent Node Connection,PERIMETER_MID_ZN_1 VAV BOX INLET NODE,AIRTERMINAL:SINGLEDUCT:VAV:REHEAT,PERIMETER_MID_ZN_1 VAV BOX COMPONENT,Inlet,1
 Non-Parent Node Connection,PERIMETER_MID_ZN_2 VAV BOX DAMPER NODE,AIRTERMINAL:SINGLEDUCT:VAV:REHEAT,PERIMETER_MID_ZN_2 VAV BOX COMPONENT,Outlet,1
 Non-Parent Node Connection,PERIMETER_MID_ZN_2 VAV BOX INLET NODE,AIRTERMINAL:SINGLEDUCT:VAV:REHEAT,PERIMETER_MID_ZN_2 VAV BOX COMPONENT,Inlet,1
 Non-Parent Node Connection,PERIMETER_MID_ZN_3 VAV BOX DAMPER NODE,AIRTERMINAL:SINGLEDUCT:VAV:REHEAT,PERIMETER_MID_ZN_3 VAV BOX COMPONENT,Outlet,1
 Non-Parent Node Connection,PERIMETER_MID_ZN_3 VAV BOX INLET NODE,AIRTERMINAL:SINGLEDUCT:VAV:REHEAT,PERIMETER_MID_ZN_3 VAV BOX COMPONENT,Inlet,1
 Non-Parent Node Connection,PERIMETER_MID_ZN_4 VAV BOX DAMPER NODE,AIRTERMINAL:SINGLEDUCT:VAV:REHEAT,PERIMETER_MID_ZN_4 VAV BOX COMPONENT,Outlet,1
 Non-Parent Node Connection,PERIMETER_MID_ZN_4 VAV BOX INLET NODE,AIRTERMINAL:SINGLEDUCT:VAV:REHEAT,PERIMETER_MID_ZN_4 VAV BOX COMPONENT,Inlet,1
 Non-Parent Node Connection,CORE_TOP VAV BOX DAMPER NODE,AIRTERMINAL:SINGLEDUCT:VAV:REHEAT,CORE_TOP VAV BOX COMPONENT,Outlet,1
 Non-Parent Node Connection,CORE_TOP VAV BOX INLET NODE,AIRTERMINAL:SINGLEDUCT:VAV:REHEAT,CORE_TOP VAV BOX COMPONENT,Inlet,1
 Non-Parent Node Connection,PERIMETER_TOP_ZN_1 VAV BOX DAMPER NODE,AIRTERMINAL:SINGLEDUCT:VAV:REHEAT,PERIMETER_TOP_ZN_1 VAV BOX COMPONENT,Outlet,1
 Non-Parent Node Connection,PERIMETER_TOP_ZN_1 VAV BOX INLET NODE,AIRTERMINAL:SINGLEDUCT:VAV:REHEAT,PERIMETER_TOP_ZN_1 VAV BOX COMPONENT,Inlet,1
 Non-Parent Node Connection,PERIMETER_TOP_ZN_2 VAV BOX DAMPER NODE,AIRTERMINAL:SINGLEDUCT:VAV:REHEAT,PERIMETER_TOP_ZN_2 VAV BOX COMPONENT,Outlet,1
 Non-Parent Node Connection,PERIMETER_TOP_ZN_2 VAV BOX INLET NODE,AIRTERMINAL:SINGLEDUCT:VAV:REHEAT,PERIMETER_TOP_ZN_2 VAV BOX COMPONENT,Inlet,1
 Non-Parent Node Connection,PERIMETER_TOP_ZN_3 VAV BOX DAMPER NODE,AIRTERMINAL:SINGLEDUCT:VAV:REHEAT,PERIMETER_TOP_ZN_3 VAV BOX COMPONENT,Outlet,1
 Non-Parent Node Connection,PERIMETER_TOP_ZN_3 VAV BOX INLET NODE,AIRTERMINAL:SINGLEDUCT:VAV:REHEAT,PERIMETER_TOP_ZN_3 VAV BOX COMPONENT,Inlet,1
 Non-Parent Node Connection,PERIMETER_TOP_ZN_4 VAV BOX DAMPER NODE,AIRTERMINAL:SINGLEDUCT:VAV:REHEAT,PERIMETER_TOP_ZN_4 VAV BOX COMPONENT,Outlet,1
 Non-Parent Node Connection,PERIMETER_TOP_ZN_4 VAV BOX INLET NODE,AIRTERMINAL:SINGLEDUCT:VAV:REHEAT,PERIMETER_TOP_ZN_4 VAV BOX COMPONENT,Inlet,1
 Non-Parent Node Connection,CORE_BOTTOM VAV BOX DAMPER NODE,COIL:HEATING:ELECTRIC,CORE_BOTTOM VAV BOX REHEAT COIL,Inlet,1
 Non-Parent Node Connection,CORE_BOTTOM VAV BOX OUTLET NODE,COIL:HEATING:ELECTRIC,CORE_BOTTOM VAV BOX REHEAT COIL,Outlet,1
 Non-Parent Node Connection,PERIMETER_BOT_ZN_1 VAV BOX DAMPER NODE,COIL:HEATING:ELECTRIC,PERIMETER_BOT_ZN_1 VAV BOX REHEAT COIL,Inlet,1
 Non-Parent Node Connection,PERIMETER_BOT_ZN_1 VAV BOX OUTLET NODE,COIL:HEATING:ELECTRIC,PERIMETER_BOT_ZN_1 VAV BOX REHEAT COIL,Outlet,1
 Non-Parent Node Connection,PERIMETER_BOT_ZN_2 VAV BOX DAMPER NODE,COIL:HEATING:ELECTRIC,PERIMETER_BOT_ZN_2 VAV BOX REHEAT COIL,Inlet,1
 Non-Parent Node Connection,PERIMETER_BOT_ZN_2 VAV BOX OUTLET NODE,COIL:HEATING:ELECTRIC,PERIMETER_BOT_ZN_2 VAV BOX REHEAT COIL,Outlet,1
 Non-Parent Node Connection,PERIMETER_BOT_ZN_3 VAV BOX DAMPER NODE,COIL:HEATING:ELECTRIC,PERIMETER_BOT_ZN_3 VAV BOX REHEAT COIL,Inlet,1
 Non-Parent Node Connection,PERIMETER_BOT_ZN_3 VAV BOX OUTLET NODE,COIL:HEATING:ELECTRIC,PERIMETER_BOT_ZN_3 VAV BOX REHEAT COIL,Outlet,1
 Non-Parent Node Connection,PERIMETER_BOT_ZN_4 VAV BOX DAMPER NODE,COIL:HEATING:ELECTRIC,PERIMETER_BOT_ZN_4 VAV BOX REHEAT COIL,Inlet,1
 Non-Parent Node Connection,PERIMETER_BOT_ZN_4 VAV BOX OUTLET NODE,COIL:HEATING:ELECTRIC,PERIMETER_BOT_ZN_4 VAV BOX REHEAT COIL,Outlet,1
 Non-Parent Node Connection,CORE_MID VAV BOX DAMPER NODE,COIL:HEATING:ELECTRIC,CORE_MID VAV BOX REHEAT COIL,Inlet,1
 Non-Parent Node Connection,CORE_MID VAV BOX OUTLET NODE,COIL:HEATING:ELECTRIC,CORE_MID VAV BOX REHEAT COIL,Outlet,1
 Non-Parent Node Connection,PERIMETER_MID_ZN_1 VAV BOX DAMPER NODE,COIL:HEATING:ELECTRIC,PERIMETER_MID_ZN_1 VAV BOX REHEAT COIL,Inlet,1
 Non-Parent Node Connection,PERIMETER_MID_ZN_1 VAV BOX OUTLET NODE,COIL:HEATING:ELECTRIC,PERIMETER_MID_ZN_1 VAV BOX REHEAT COIL,Outlet,1
 Non-Parent Node Connection,PERIMETER_MID_ZN_2 VAV BOX DAMPER NODE,COIL:HEATING:ELECTRIC,PERIMETER_MID_ZN_2 VAV BOX REHEAT COIL,Inlet,1
 Non-Parent Node Connection,PERIMETER_MID_ZN_2 VAV BOX OUTLET NODE,COIL:HEATING:ELECTRIC,PERIMETER_MID_ZN_2 VAV BOX REHEAT COIL,Outlet,1
 Non-Parent Node Connection,PERIMETER_MID_ZN_3 VAV BOX DAMPER NODE,COIL:HEATING:ELECTRIC,PERIMETER_MID_ZN_3 VAV BOX REHEAT COIL,Inlet,1
 Non-Parent Node Connection,PERIMETER_MID_ZN_3 VAV BOX OUTLET NODE,COIL:HEATING:ELECTRIC,PERIMETER_MID_ZN_3 VAV BOX REHEAT COIL,Outlet,1
 Non-Parent Node Connection,PERIMETER_MID_ZN_4 VAV BOX DAMPER NODE,COIL:HEATING:ELECTRIC,PERIMETER_MID_ZN_4 VAV BOX REHEAT COIL,Inlet,1
 Non-Parent Node Connection,PERIMETER_MID_ZN_4 VAV BOX OUTLET NODE,COIL:HEATING:ELECTRIC,PERIMETER_MID_ZN_4 VAV BOX REHEAT COIL,Outlet,1
 Non-Parent Node Connection,CORE_TOP VAV BOX DAMPER NODE,COIL:HEATING:ELECTRIC,CORE_TOP VAV BOX REHEAT COIL,Inlet,1
 Non-Parent Node Connection,CORE_TOP VAV BOX OUTLET NODE,COIL:HEATING:ELECTRIC,CORE_TOP VAV BOX REHEAT COIL,Outlet,1
 Non-Parent Node Connection,PERIMETER_TOP_ZN_1 VAV BOX DAMPER NODE,COIL:HEATING:ELECTRIC,PERIMETER_TOP_ZN_1 VAV BOX REHEAT COIL,Inlet,1
 Non-Parent Node Connection,PERIMETER_TOP_ZN_1 VAV BOX OUTLET NODE,COIL:HEATING:ELECTRIC,PERIMETER_TOP_ZN_1 VAV BOX REHEAT COIL,Outlet,1
 Non-Parent Node Connection,PERIMETER_TOP_ZN_2 VAV BOX DAMPER NODE,COIL:HEATING:ELECTRIC,PERIMETER_TOP_ZN_2 VAV BOX REHEAT COIL,Inlet,1
 Non-Parent Node Connection,PERIMETER_TOP_ZN_2 VAV BOX OUTLET NODE,COIL:HEATING:ELECTRIC,PERIMETER_TOP_ZN_2 VAV BOX REHEAT COIL,Outlet,1
 Non-Parent Node Connection,PERIMETER_TOP_ZN_3 VAV BOX DAMPER NODE,COIL:HEATING:ELECTRIC,PERIMETER_TOP_ZN_3 VAV BOX REHEAT COIL,Inlet,1
 Non-Parent Node Connection,PERIMETER_TOP_ZN_3 VAV BOX OUTLET NODE,COIL:HEATING:ELECTRIC,PERIMETER_TOP_ZN_3 VAV BOX REHEAT COIL,Outlet,1
 Non-Parent Node Connection,PERIMETER_TOP_ZN_4 VAV BOX DAMPER NODE,COIL:HEATING:ELECTRIC,PERIMETER_TOP_ZN_4 VAV BOX REHEAT COIL,Inlet,1
 Non-Parent Node Connection,PERIMETER_TOP_ZN_4 VAV BOX OUTLET NODE,COIL:HEATING:ELECTRIC,PERIMETER_TOP_ZN_4 VAV BOX REHEAT COIL,Outlet,1
 Non-Parent Node Connection,PACU_VAV_BOT_COOLC-PACU_VAV_BOT_HEATCNODE,COIL:HEATING:FUEL,PACU_VAV_BOT HEATING COIL,Inlet,1
 Non-Parent Node Connection,PACU_VAV_BOT_HEATC-PACU_VAV_BOT FANNODE,COIL:HEATING:FUEL,PACU_VAV_BOT HEATING COIL,Outlet,1
 Non-Parent Node Connection,PACU_VAV_BOT_HEATC-PACU_VAV_BOT FANNODE,COIL:HEATING:FUEL,PACU_VAV_BOT HEATING COIL,Sensor,1
 Non-Parent Node Connection,PACU_VAV_MID_COOLC-PACU_VAV_MID_HEATCNODE,COIL:HEATING:FUEL,PACU_VAV_MID HEATING COIL,Inlet,1
 Non-Parent Node Connection,PACU_VAV_MID_HEATC-PACU_VAV_MID FANNODE,COIL:HEATING:FUEL,PACU_VAV_MID HEATING COIL,Outlet,1
 Non-Parent Node Connection,PACU_VAV_MID_HEATC-PACU_VAV_MID FANNODE,COIL:HEATING:FUEL,PACU_VAV_MID HEATING COIL,Sensor,1
 Non-Parent Node Connection,PACU_VAV_TOP_COOLC-PACU_VAV_TOP_HEATCNODE,COIL:HEATING:FUEL,PACU_VAV_TOP HEATING COIL,Inlet,1
 Non-Parent Node Connection,PACU_VAV_TOP_HEATC-PACU_VAV_TOP FANNODE,COIL:HEATING:FUEL,PACU_VAV_TOP HEATING COIL,Outlet,1
 Non-Parent Node Connection,PACU_VAV_TOP_HEATC-PACU_VAV_TOP FANNODE,COIL:HEATING:FUEL,PACU_VAV_TOP HEATING COIL,Sensor,1
 Non-Parent Node Connection,FIRSTFLOOR_PLENUM_NODE,AIRLOOPHVAC:RETURNPLENUM,FIRSTFLOOR_PLENUM_RETURN,ZoneNode,1
 Non-Parent Node Connection,FIRSTFLOOR_PLENUM OUTLET NODE,AIRLOOPHVAC:RETURNPLENUM,FIRSTFLOOR_PLENUM_RETURN,Outlet,1
 Non-Parent Node Connection,CORE_BOTTOM RETURN AIR NODE,AIRLOOPHVAC:RETURNPLENUM,FIRSTFLOOR_PLENUM_RETURN,Inlet,1
 Non-Parent Node Connection,PERIMETER_BOT_ZN_1 RETURN AIR NODE,AIRLOOPHVAC:RETURNPLENUM,FIRSTFLOOR_PLENUM_RETURN,Inlet,1
 Non-Parent Node Connection,PERIMETER_BOT_ZN_2 RETURN AIR NODE,AIRLOOPHVAC:RETURNPLENUM,FIRSTFLOOR_PLENUM_RETURN,Inlet,1
 Non-Parent Node Connection,PERIMETER_BOT_ZN_3 RETURN AIR NODE,AIRLOOPHVAC:RETURNPLENUM,FIRSTFLOOR_PLENUM_RETURN,Inlet,1
 Non-Parent Node Connection,PERIMETER_BOT_ZN_4 RETURN AIR NODE,AIRLOOPHVAC:RETURNPLENUM,FIRSTFLOOR_PLENUM_RETURN,Inlet,1
 Non-Parent Node Connection,MIDFLOOR_PLENUM_NODE,AIRLOOPHVAC:RETURNPLENUM,MIDFLOOR_PLENUM_RETURN,ZoneNode,1
 Non-Parent Node Connection,MIDFLOOR_PLENUM OUTLET NODE,AIRLOOPHVAC:RETURNPLENUM,MIDFLOOR_PLENUM_RETURN,Outlet,1
 Non-Parent Node Connection,CORE_MID RETURN AIR NODE,AIRLOOPHVAC:RETURNPLENUM,MIDFLOOR_PLENUM_RETURN,Inlet,1
 Non-Parent Node Connection,PERIMETER_MID_ZN_1 RETURN AIR NODE,AIRLOOPHVAC:RETURNPLENUM,MIDFLOOR_PLENUM_RETURN,Inlet,1
 Non-Parent Node Connection,PERIMETER_MID_ZN_2 RETURN AIR NODE,AIRLOOPHVAC:RETURNPLENUM,MIDFLOOR_PLENUM_RETURN,Inlet,1
 Non-Parent Node Connection,PERIMETER_MID_ZN_3 RETURN AIR NODE,AIRLOOPHVAC:RETURNPLENUM,MIDFLOOR_PLENUM_RETURN,Inlet,1
 Non-Parent Node Connection,PERIMETER_MID_ZN_4 RETURN AIR NODE,AIRLOOPHVAC:RETURNPLENUM,MIDFLOOR_PLENUM_RETURN,Inlet,1
 Non-Parent Node Connection,TOPFLOOR_PLENUM_NODE,AIRLOOPHVAC:RETURNPLENUM,TOPFLOOR_PLENUM_RETURN,ZoneNode,1
 Non-Parent Node Connection,TOPFLOOR_PLENUM OUTLET NODE,AIRLOOPHVAC:RETURNPLENUM,TOPFLOOR_PLENUM_RETURN,Outlet,1
 Non-Parent Node Connection,CORE_TOP RETURN AIR NODE,AIRLOOPHVAC:RETURNPLENUM,TOPFLOOR_PLENUM_RETURN,Inlet,1
 Non-Parent Node Connection,PERIMETER_TOP_ZN_1 RETURN AIR NODE,AIRLOOPHVAC:RETURNPLENUM,TOPFLOOR_PLENUM_RETURN,Inlet,1
 Non-Parent Node Connection,PERIMETER_TOP_ZN_2 RETURN AIR NODE,AIRLOOPHVAC:RETURNPLENUM,TOPFLOOR_PLENUM_RETURN,Inlet,1
 Non-Parent Node Connection,PERIMETER_TOP_ZN_3 RETURN AIR NODE,AIRLOOPHVAC:RETURNPLENUM,TOPFLOOR_PLENUM_RETURN,Inlet,1
 Non-Parent Node Connection,PERIMETER_TOP_ZN_4 RETURN AIR NODE,AIRLOOPHVAC:RETURNPLENUM,TOPFLOOR_PLENUM_RETURN,Inlet,1
 Non-Parent Node Connection,PACU_VAV_BOT ZONE EQUIPMENT OUTLET NODE,AIRLOOPHVAC:ZONEMIXER,PACU_VAV_BOT RETURN AIR MIXER,Outlet,1
 Non-Parent Node Connection,FIRSTFLOOR_PLENUM OUTLET NODE,AIRLOOPHVAC:ZONEMIXER,PACU_VAV_BOT RETURN AIR MIXER,Inlet,1
 Non-Parent Node Connection,PACU_VAV_MID ZONE EQUIPMENT OUTLET NODE,AIRLOOPHVAC:ZONEMIXER,PACU_VAV_MID RETURN AIR MIXER,Outlet,1
 Non-Parent Node Connection,MIDFLOOR_PLENUM OUTLET NODE,AIRLOOPHVAC:ZONEMIXER,PACU_VAV_MID RETURN AIR MIXER,Inlet,1
 Non-Parent Node Connection,PACU_VAV_TOP ZONE EQUIPMENT OUTLET NODE,AIRLOOPHVAC:ZONEMIXER,PACU_VAV_TOP RETURN AIR MIXER,Outlet,1
 Non-Parent Node Connection,TOPFLOOR_PLENUM OUTLET NODE,AIRLOOPHVAC:ZONEMIXER,PACU_VAV_TOP RETURN AIR MIXER,Inlet,1
 Non-Parent Node Connection,PACU_VAV_BOT_OA-PACU_VAV_BOT_COOLCNODE,OUTDOORAIR:MIXER,PACU_VAV_BOT_OAMIXING BOX,Outlet,1
 Non-Parent Node Connection,PACU_VAV_BOT_OAINLET NODE,OUTDOORAIR:MIXER,PACU_VAV_BOT_OAMIXING BOX,Inlet,1
 Non-Parent Node Connection,PACU_VAV_BOT_OARELIEF NODE,OUTDOORAIR:MIXER,PACU_VAV_BOT_OAMIXING BOX,ReliefAir,1
 Non-Parent Node Connection,PACU_VAV_BOT SUPPLY EQUIPMENT INLET NODE,OUTDOORAIR:MIXER,PACU_VAV_BOT_OAMIXING BOX,Inlet,1
 Non-Parent Node Connection,PACU_VAV_MID_OA-PACU_VAV_MID_COOLCNODE,OUTDOORAIR:MIXER,PACU_VAV_MID_OAMIXING BOX,Outlet,1
 Non-Parent Node Connection,PACU_VAV_MID_OAINLET NODE,OUTDOORAIR:MIXER,PACU_VAV_MID_OAMIXING BOX,Inlet,1
 Non-Parent Node Connection,PACU_VAV_MID_OARELIEF NODE,OUTDOORAIR:MIXER,PACU_VAV_MID_OAMIXING BOX,ReliefAir,1
 Non-Parent Node Connection,PACU_VAV_MID SUPPLY EQUIPMENT INLET NODE,OUTDOORAIR:MIXER,PACU_VAV_MID_OAMIXING BOX,Inlet,1
 Non-Parent Node Connection,PACU_VAV_TOP_OA-PACU_VAV_TOP_COOLCNODE,OUTDOORAIR:MIXER,PACU_VAV_TOP_OAMIXING BOX,Outlet,1
 Non-Parent Node Connection,PACU_VAV_TOP_OAINLET NODE,OUTDOORAIR:MIXER,PACU_VAV_TOP_OAMIXING BOX,Inlet,1
 Non-Parent Node Connection,PACU_VAV_TOP_OARELIEF NODE,OUTDOORAIR:MIXER,PACU_VAV_TOP_OAMIXING BOX,ReliefAir,1
 Non-Parent Node Connection,PACU_VAV_TOP SUPPLY EQUIPMENT INLET NODE,OUTDOORAIR:MIXER,PACU_VAV_TOP_OAMIXING BOX,Inlet,1
 Non-Parent Node Connection,PACU_VAV_BOT_OA-PACU_VAV_BOT_COOLCNODE,CONTROLLER:OUTDOORAIR,PACU_VAV_BOT_OA_CONTROLLER,Sensor,1
 Non-Parent Node Connection,PACU_VAV_BOT_OAINLET NODE,CONTROLLER:OUTDOORAIR,PACU_VAV_BOT_OA_CONTROLLER,Actuator,1
 Non-Parent Node Connection,PACU_VAV_BOT_OARELIEF NODE,CONTROLLER:OUTDOORAIR,PACU_VAV_BOT_OA_CONTROLLER,Actuator,1
 Non-Parent Node Connection,PACU_VAV_BOT SUPPLY EQUIPMENT INLET NODE,CONTROLLER:OUTDOORAIR,PACU_VAV_BOT_OA_CONTROLLER,Sensor,1
 Non-Parent Node Connection,PACU_VAV_MID_OA-PACU_VAV_MID_COOLCNODE,CONTROLLER:OUTDOORAIR,PACU_VAV_MID_OA_CONTROLLER,Sensor,1
 Non-Parent Node Connection,PACU_VAV_MID_OAINLET NODE,CONTROLLER:OUTDOORAIR,PACU_VAV_MID_OA_CONTROLLER,Actuator,1
 Non-Parent Node Connection,PACU_VAV_MID_OARELIEF NODE,CONTROLLER:OUTDOORAIR,PACU_VAV_MID_OA_CONTROLLER,Actuator,1
 Non-Parent Node Connection,PACU_VAV_MID SUPPLY EQUIPMENT INLET NODE,CONTROLLER:OUTDOORAIR,PACU_VAV_MID_OA_CONTROLLER,Sensor,1
 Non-Parent Node Connection,PACU_VAV_TOP_OA-PACU_VAV_TOP_COOLCNODE,CONTROLLER:OUTDOORAIR,PACU_VAV_TOP_OA_CONTROLLER,Sensor,1
 Non-Parent Node Connection,PACU_VAV_TOP_OAINLET NODE,CONTROLLER:OUTDOORAIR,PACU_VAV_TOP_OA_CONTROLLER,Actuator,1
 Non-Parent Node Connection,PACU_VAV_TOP_OARELIEF NODE,CONTROLLER:OUTDOORAIR,PACU_VAV_TOP_OA_CONTROLLER,Actuator,1
 Non-Parent Node Connection,PACU_VAV_TOP SUPPLY EQUIPMENT INLET NODE,CONTROLLER:OUTDOORAIR,PACU_VAV_TOP_OA_CONTROLLER,Sensor,1
 Non-Parent Node Connection,SWHSYS1 SUPPLY INLET NODE,PUMP:CONSTANTSPEED,SWHSYS1 PUMP,Inlet,1
 Non-Parent Node Connection,SWHSYS1 PUMP-WATER HEATERNODEVIACONNECTOR,PUMP:CONSTANTSPEED,SWHSYS1 PUMP,Outlet,1
