Program Version,EnergyPlus, Version 25.1.0-68a4a7c774, YMD=2025.10.22 12:58
! <Version>, Version ID
 Version, 25.1
! <Timesteps per Hour>, #TimeSteps, Minutes per TimeStep {minutes}
 Timesteps per Hour,  6, 10
! <System Convergence Limits>, Minimum System TimeStep {minutes}, Max HVAC Iterations, Minimum Plant Iterations, Maximum Plant Iterations
 System Convergence Limits, 1, 20, 2, 8
! <Simulation Control>, Do Zone Sizing, Do System Sizing, Do Plant Sizing, Do Design Days, Do Weather Simulation, Do HVAC Sizing Simulation
 Simulation Control, Yes, Yes, Yes, No, Yes, No
! <Performance Precision Tradeoffs>, Use Coil Direct Simulation, Zone Radiant Exchange Algorithm, Override Mode, Number of Timestep In Hour, Force Euler Method, Minimum Number of Warmup Days, Force Suppress All Begin Environment Resets, Minimum System Timestep, MaxZoneTempDiff, MaxAllowedDelTemp
 Performance Precision Tradeoffs, No, ScriptF, Normal, 6, No, 1, No, 1.0, 0.300, 2.0000E-003
! <Output Reporting Tolerances>, Tolerance for Time Heating Setpoint Not Met, Tolerance for Zone Cooling Setpoint Not Met Time
 Output Reporting Tolerances, 0.556, 0.556, 
! <Site:GroundTemperature:BuildingSurface>,Jan{C},Feb{C},Mar{C},Apr{C},May{C},Jun{C},Jul{C},Aug{C},Sep{C},Oct{C},Nov{C},Dec{C}
 Site:GroundTemperature:BuildingSurface,  18.00,  18.00,  18.00,  18.00,  18.00,  18.00,  18.00,  18.00,  18.00,  18.00,  18.00,  18.00
! <Site:GroundTemperature:FCfactorMethod>,Jan{C},Feb{C},Mar{C},Apr{C},May{C},Jun{C},Jul{C},Aug{C},Sep{C},Oct{C},Nov{C},Dec{C}
 Site:GroundTemperature:FCfactorMethod,   7.40,  -0.00,  -7.60, -12.60,  -7.70,   0.30,   7.00,  14.20,  19.20,  20.90,  20.00,  15.40
! <Site:GroundTemperature:Shallow>,Jan{C},Feb{C},Mar{C},Apr{C},May{C},Jun{C},Jul{C},Aug{C},Sep{C},Oct{C},Nov{C},Dec{C}
 Site:GroundTemperature:Shallow,  13.00,  13.00,  13.00,  13.00,  13.00,  13.00,  13.00,  13.00,  13.00,  13.00,  13.00,  13.00
! <Site:GroundTemperature:Deep>,Jan{C},Feb{C},Mar{C},Apr{C},May{C},Jun{C},Jul{C},Aug{C},Sep{C},Oct{C},Nov{C},Dec{C}
 Site:GroundTemperature:Deep,  16.00,  16.00,  16.00,  16.00,  16.00,  16.00,  16.00,  16.00,  16.00,  16.00,  16.00,  16.00
! <Site:GroundReflectance>,Jan{dimensionless},Feb{dimensionless},Mar{dimensionless},Apr{dimensionless},May{dimensionless},Jun{dimensionless},Jul{dimensionless},Aug{dimensionless},Sep{dimensionless},Oct{dimensionless},Nov{dimensionless},Dec{dimensionless}
 Site:GroundReflectance,  0.20,  0.20,  0.20,  0.20,  0.20,  0.20,  0.20,  0.20,  0.20,  0.20,  0.20,  0.20
! <Site:GroundReflectance:SnowModifier>, Normal, Daylighting {dimensionless}
 Site:GroundReflectance:SnowModifier,   1.000,   1.000
! <Site:GroundReflectance:Snow>,Jan{dimensionless},Feb{dimensionless},Mar{dimensionless},Apr{dimensionless},May{dimensionless},Jun{dimensionless},Jul{dimensionless},Aug{dimensionless},Sep{dimensionless},Oct{dimensionless},Nov{dimensionless},Dec{dimensionless}
 Site:GroundReflectance:Snow,  0.20,  0.20,  0.20,  0.20,  0.20,  0.20,  0.20,  0.20,  0.20,  0.20,  0.20,  0.20
! <Site:GroundReflectance:Snow:Daylighting>,Jan{dimensionless},Feb{dimensionless},Mar{dimensionless},Apr{dimensionless},May{dimensionless},Jun{dimensionless},Jul{dimensionless},Aug{dimensionless},Sep{dimensionless},Oct{dimensionless},Nov{dimensionless},Dec{dimensionless}
 Site:GroundReflectance:Snow:Daylighting,  0.20,  0.20,  0.20,  0.20,  0.20,  0.20,  0.20,  0.20,  0.20,  0.20,  0.20,  0.20
! <Environment:Weather Station>,Wind Sensor Height Above Ground {m},Wind Speed Profile Exponent {},Wind Speed Profile Boundary Layer Thickness {m},Air Temperature Sensor Height Above Ground {m},Wind Speed Modifier Coefficient-Internal,Temperature Modifier Coefficient-Internal
Environment:Weather Station,10.000,0.140,270.000,1.500,1.586,9.750E-003
! <Site:Location>, Location Name, Latitude {N+/S- Deg}, Longitude {E+/W- Deg},  Time Zone Number {GMT+/-}, Elevation {m},  Standard Pressure at Elevation {Pa}, Standard RhoAir at Elevation
Site:Location,Rochester International Arpt MN USA TMY3 WMO#=726440,43.90,-92.50,-6.00,398.00,96634,1.1486
! <Site Water Mains Temperature Information>,Calculation Method{},Water Mains Temperature Schedule Name{},Annual Average Outdoor Air Temperature{C},Maximum Difference In Monthly Average Outdoor Air Temperatures{deltaC},Fixed Default Water Mains Temperature{C}
Site Water Mains Temperature Information,Correlation,NA,6.38,33.50,NA
! <Building Information>, Building Name,North Axis {deg},Terrain,  Loads Convergence Tolerance Value,Temperature Convergence Tolerance Value,  Solar Distribution,Maximum Number of Warmup Days,Minimum Number of Warmup Days
 Building Information,OfficeMedium,0.000,City,4.00000E-002,0.20000,FullInteriorAndExterior,25,6
! <Inside Convection Algorithm>, Algorithm {Simple | TARP | CeilingDiffuser | AdaptiveConvectionAlgorithm}
Inside Convection Algorithm,TARP
! <Outside Convection Algorithm>, Algorithm {SimpleCombined | TARP | MoWitt | DOE-2 | AdaptiveConvectionAlgorithm}
Outside Convection Algorithm,TARP
! <Sky Radiance Distribution>, Value {Anisotropic}
Sky Radiance Distribution,Anisotropic
! <Zone Air Solution Algorithm>, Algorithm {ThirdOrderBackwardDifference | AnalyticalSolution | EulerMethod}, Space Heat Balance Sizing, Space Heat Balance Simulation
 Zone Air Solution Algorithm, ThirdOrderBackwardDifference, No, No
! <Zone Air Carbon Dioxide Balance Simulation>, Simulation {Yes/No}, Carbon Dioxide Concentration
 Zone Air Carbon Dioxide Balance Simulation, No,N/A
! <Zone Air Generic Contaminant Balance Simulation>, Simulation {Yes/No}, Generic Contaminant Concentration
 Zone Air Generic Contaminant Balance Simulation, No,N/A
! <Zone Air Mass Flow Balance Simulation>, Enforce Mass Balance, Adjust Zone Mixing and Return {AdjustMixingOnly | AdjustReturnOnly | AdjustMixingThenReturn | AdjustReturnThenMixing | None}, Adjust Zone Infiltration {AddInfiltration | AdjustInfiltration | None}, Infiltration Zones {MixingSourceZonesOnly | AllZones}
 Zone Air Mass Flow Balance Simulation, No,N/A,N/A,N/A
! <HVACSystemRootFindingAlgorithm>, Value {RegulaFalsi | Bisection | BisectionThenRegulaFalsi | RegulaFalsiThenBisection}
 HVACSystemRootFindingAlgorithm, RegulaFalsi
! <Environment:Site Atmospheric Variation>,Wind Speed Profile Exponent {},Wind Speed Profile Boundary Layer Thickness {m},Air Temperature Gradient Coefficient {K/m}
Environment:Site Atmospheric Variation,0.330,460.000,6.500000E-003
! <Shadowing/Sun Position Calculations Annual Simulations>, Shading Calculation Method, Shading Calculation Update Frequency Method, Shading Calculation Update Frequency {days}, Maximum Figures in Shadow Overlap Calculations {}, Polygon Clipping Algorithm, Pixel Counting Resolution, Sky Diffuse Modeling Algorithm, Output External Shading Calculation Results, Disable Self-Shading Within Shading Zone Groups, Disable Self-Shading From Shading Zone Groups to Other Zones
Shadowing/Sun Position Calculations Annual Simulations,PolygonClipping,Periodic,30,15000,SutherlandHodgman,512,SimpleSkyDiffuseModeling,No,No,No
! <Surface Geometry>,Starting Corner,Vertex Input Direction,Coordinate System,Daylight Reference Point Coordinate System,Rectangular (Simple) Surface Coordinate System
 Surface Geometry,UpperLeftCorner,Counterclockwise,RelativeCoordinateSystem,RelativeCoordinateSystem,RelativeToZoneOrigin
! <Surface Heat Transfer Algorithm>, Value {CTF - ConductionTransferFunction | EMPD - MoisturePenetrationDepthConductionTransferFunction | CondFD - ConductionFiniteDifference | HAMT - CombinedHeatAndMoistureFiniteElement} - Description,Inside Surface Max Temperature Limit{C}, Surface Convection Coefficient Lower Limit {W/m2-K}, Surface Convection Coefficient Upper Limit {W/m2-K}
Surface Heat Transfer Algorithm, CTF - ConductionTransferFunction,200,0.10,1000.0
! <Shading Summary>, Number of Fixed Detached Shades, Number of Building Detached Shades, Number of Attached Shades
 Shading Summary,0,0,0
! <Zone Summary>, Number of Zones, Number of Zone Surfaces, Number of SubSurfaces
 Zone Summary,18,167,24
! <Zone Information>,Zone Name,North Axis {deg},Origin X-Coordinate {m},Origin Y-Coordinate {m},Origin Z-Coordinate {m},Centroid X-Coordinate {m},Centroid Y-Coordinate {m},Centroid Z-Coordinate {m},Type,Zone Multiplier,Zone List Multiplier,Minimum X {m},Maximum X {m},Minimum Y {m},Maximum Y {m},Minimum Z {m},Maximum Z {m},Ceiling Height {m},Volume {m3},Zone Inside Convection Algorithm {Simple-Detailed-CeilingDiffuser-TrombeWall},Zone Outside Convection Algorithm {Simple-Detailed-Tarp-MoWitt-DOE-2-BLAST}, Floor Area {m2},Exterior Gross Wall Area {m2},Exterior Net Wall Area {m2},Exterior Window Area {m2}, Number of Surfaces, Number of SubSurfaces, Number of Shading SubSurfaces,  Part of Total Building Area
 Zone Information, CORE_BOTTOM,0.0,0.00,0.00,0.00,24.96,16.64,1.37,1,1,1,4.57,45.34,4.57,28.70,0.00,2.74,2.74,2698.04,TARP,TARP,983.54,0.00,0.00,0.00,6,0,0,Yes
 Zone Information, TOPFLOOR_PLENUM,0.0,0.00,0.00,0.00,24.96,16.64,11.28,1,1,1,0.00,49.91,0.00,33.27,10.67,11.89,1.22,2024.76,TARP,TARP,1660.73,202.84,202.84,0.00,10,0,0,No
 Zone Information, MIDFLOOR_PLENUM,0.0,0.00,0.00,0.00,24.96,16.64,7.32,1,1,1,0.00,49.91,0.00,33.27,6.71,7.92,1.22,2024.76,TARP,TARP,1660.73,202.84,202.84,0.00,14,0,0,No
 Zone Information, FIRSTFLOOR_PLENUM,0.0,0.00,0.00,0.00,24.96,16.64,3.35,1,1,1,0.00,49.91,0.00,33.27,2.74,3.96,1.22,2024.76,TARP,TARP,1660.73,202.84,202.84,0.00,14,0,0,No
 Zone Information, CORE_MID,0.0,0.00,0.00,0.00,24.96,16.64,5.33,1,1,1,4.57,45.34,4.57,28.70,3.96,6.71,2.74,2698.04,TARP,TARP,983.54,0.00,0.00,0.00,6,0,0,Yes
 Zone Information, CORE_TOP,0.0,0.00,0.00,0.00,24.96,16.64,9.30,1,1,1,4.57,45.34,4.57,28.70,7.92,10.67,2.74,2698.04,TARP,TARP,983.54,0.00,0.00,0.00,6,0,0,Yes
 Zone Information, PERIMETER_TOP_ZN_3,0.0,0.00,0.00,0.00,24.96,31.11,9.30,1,1,1,0.00,49.91,28.70,33.27,7.92,10.67,2.74,568.77,TARP,TARP,207.34,136.92,71.65,65.26,6,1,0,Yes
 Zone Information, PERIMETER_TOP_ZN_2,0.0,0.00,0.00,0.00,47.82,16.64,9.30,1,1,1,45.34,49.91,0.00,33.27,7.92,10.67,2.74,360.08,TARP,TARP,131.26,91.28,47.77,43.51,6,1,0,Yes
 Zone Information, PERIMETER_TOP_ZN_1,0.0,0.00,0.00,0.00,24.96,2.16,9.30,1,1,1,0.00,49.91,0.00,4.57,7.92,10.67,2.74,568.77,TARP,TARP,207.34,136.92,71.65,65.26,6,1,0,Yes
 Zone Information, PERIMETER_TOP_ZN_4,0.0,0.00,0.00,0.00,2.09,16.64,9.30,1,1,1,0.00,4.57,0.00,33.27,7.92,10.67,2.74,360.05,TARP,TARP,131.25,91.28,47.77,43.51,6,1,0,Yes
 Zone Information, PERIMETER_BOT_ZN_3,0.0,0.00,0.00,0.00,24.96,31.11,1.37,1,1,1,0.00,49.91,28.70,33.27,0.00,2.74,2.74,568.77,TARP,TARP,207.34,136.92,67.75,65.26,6,5,0,Yes
 Zone Information, PERIMETER_BOT_ZN_2,0.0,0.00,0.00,0.00,47.82,16.64,1.37,1,1,1,45.34,49.91,0.00,33.27,0.00,2.74,2.74,360.08,TARP,TARP,131.26,91.28,45.82,43.51,6,3,0,Yes
 Zone Information, PERIMETER_BOT_ZN_1,0.0,0.00,0.00,0.00,24.96,2.16,1.37,1,1,1,0.00,49.91,0.00,4.57,0.00,2.74,2.74,568.77,TARP,TARP,207.34,136.92,67.75,65.26,6,5,0,Yes
 Zone Information, PERIMETER_BOT_ZN_4,0.0,0.00,0.00,0.00,2.09,16.64,1.37,1,1,1,0.00,4.57,0.00,33.27,0.00,2.74,2.74,360.05,TARP,TARP,131.25,91.28,45.82,43.51,6,3,0,Yes
 Zone Information, PERIMETER_MID_ZN_3,0.0,0.00,0.00,0.00,24.96,31.11,5.33,1,1,1,0.00,49.91,28.70,33.27,3.96,6.71,2.74,568.77,TARP,TARP,207.34,136.92,71.65,65.26,6,1,0,Yes
 Zone Information, PERIMETER_MID_ZN_2,0.0,0.00,0.00,0.00,47.82,16.64,5.33,1,1,1,45.34,49.91,0.00,33.27,3.96,6.71,2.74,360.08,TARP,TARP,131.26,91.28,47.77,43.51,6,1,0,Yes
 Zone Information, PERIMETER_MID_ZN_1,0.0,0.00,0.00,0.00,24.96,2.16,5.33,1,1,1,0.00,49.91,0.00,4.57,3.96,6.71,2.74,568.77,TARP,TARP,207.34,136.92,71.65,65.26,6,1,0,Yes
 Zone Information, PERIMETER_MID_ZN_4,0.0,0.00,0.00,0.00,2.09,16.64,5.33,1,1,1,0.00,4.57,0.00,33.27,3.96,6.71,2.74,360.05,TARP,TARP,131.25,91.28,47.77,43.51,6,1,0,Yes
! <Zone Internal Gains Nominal>,Zone Name, Floor Area {m2},# Occupants,Area per Occupant {m2/person},Occupant per Area {person/m2},Interior Lighting {W/m2},Electric Load {W/m2},Gas Load {W/m2},Other Load {W/m2},Hot Water Eq {W/m2},Steam Equipment {W/m2},Sum Loads per Area {W/m2},Outdoor Controlled Baseboard Heat
 Zone Internal Gains Nominal, CORE_BOTTOM,983.54,52.9,18.579,5.382E-002,5.804,16.837,0.000,0.000,0.000,0.000,22.641,No
 Zone Internal Gains Nominal, TOPFLOOR_PLENUM,1660.73,0.0,N/A,0.000,0.000,0.000,0.000,0.000,0.000,0.000,0.000,No
 Zone Internal Gains Nominal, MIDFLOOR_PLENUM,1660.73,0.0,N/A,0.000,0.000,0.000,0.000,0.000,0.000,0.000,0.000,No
 Zone Internal Gains Nominal, FIRSTFLOOR_PLENUM,1660.73,0.0,N/A,0.000,0.000,0.000,0.000,0.000,0.000,0.000,0.000,No
 Zone Internal Gains Nominal, CORE_MID,983.54,52.9,18.579,5.382E-002,5.804,8.070,0.000,0.000,0.000,0.000,13.874,No
 Zone Internal Gains Nominal, CORE_TOP,983.54,52.9,18.579,5.382E-002,5.804,8.070,0.000,0.000,0.000,0.000,13.874,No
 Zone Internal Gains Nominal, PERIMETER_TOP_ZN_3,207.34,11.2,18.579,5.382E-002,5.804,8.070,0.000,0.000,0.000,0.000,13.874,No
 Zone Internal Gains Nominal, PERIMETER_TOP_ZN_2,131.26,7.1,18.579,5.382E-002,5.804,8.069,0.000,0.000,0.000,0.000,13.873,No
 Zone Internal Gains Nominal, PERIMETER_TOP_ZN_1,207.34,11.2,18.579,5.382E-002,5.804,8.070,0.000,0.000,0.000,0.000,13.874,No
 Zone Internal Gains Nominal, PERIMETER_TOP_ZN_4,131.25,7.1,18.579,5.382E-002,5.804,8.070,0.000,0.000,0.000,0.000,13.874,No
 Zone Internal Gains Nominal, PERIMETER_BOT_ZN_3,207.34,11.2,18.579,5.382E-002,5.804,8.070,0.000,0.000,0.000,0.000,13.874,No
 Zone Internal Gains Nominal, PERIMETER_BOT_ZN_2,131.26,7.1,18.579,5.382E-002,5.804,8.069,0.000,0.000,0.000,0.000,13.873,No
 Zone Internal Gains Nominal, PERIMETER_BOT_ZN_1,207.34,11.2,18.579,5.382E-002,5.804,8.070,0.000,0.000,0.000,0.000,13.874,No
 Zone Internal Gains Nominal, PERIMETER_BOT_ZN_4,131.25,7.1,18.579,5.382E-002,5.804,8.070,0.000,0.000,0.000,0.000,13.874,No
 Zone Internal Gains Nominal, PERIMETER_MID_ZN_3,207.34,11.2,18.579,5.382E-002,5.804,8.070,0.000,0.000,0.000,0.000,13.874,No
 Zone Internal Gains Nominal, PERIMETER_MID_ZN_2,131.26,7.1,18.579,5.382E-002,5.804,8.069,0.000,0.000,0.000,0.000,13.873,No
 Zone Internal Gains Nominal, PERIMETER_MID_ZN_1,207.34,11.2,18.579,5.382E-002,5.804,8.070,0.000,0.000,0.000,0.000,13.874,No
 Zone Internal Gains Nominal, PERIMETER_MID_ZN_4,131.25,7.1,18.579,5.382E-002,5.804,8.070,0.000,0.000,0.000,0.000,13.874,No
! <People Internal Gains Nominal>,Name,Schedule Name,Zone Name,Zone Floor Area {m2},# Zone Occupants,Number of People {},People/Floor Area {person/m2},Floor Area per person {m2/person},Fraction Radiant,Fraction Convected,Sensible Fraction Calculation,Activity level,ASHRAE 55 Warnings,Carbon Dioxide Generation Rate,Minimum Number of People for All Day Types,Maximum Number of People for All Day Types,Minimum Number of People for Weekdays, Maximum Number of People for Weekdays, Minimum Number of People for Weekends/Holidays, Maximum Number of People for Weekends /Holidays,Minimum Number of People for Summer Design Days, Maximum Number of People for Summer Design Days,Minimum Number of People for Winter Design Days, Maximum Number of People for Winter Design Days,MRT Calculation Type,Work Efficiency, Clothing Insulation Calculation Method,Clothing Insulation Calculation Method Schedule,Clothing,Air Velocity,Fanger Calculation,Pierce Calculation,KSU Calculation,Cooling Effect Calculation,Ankle Draft Calculation
 People Internal Gains Nominal, CORE_BOTTOM,BLDG_OCC_SCH_WO_SB,CORE_BOTTOM,983.54,52.9,52.9,5.382E-002,18.579,0.300,0.700,AutoCalculate,ACTIVITY_SCH,No,3.8200E-008,0.0,52.9,0.0,51.7,0.0,16.3,5.3E-008,52.9,0.0,0.0,Zone Averaged,WORK_EFF_SCH,Clothing Insulation Schedule,N/A,CLOTHING_SCH,AIR_VELO_SCH,Yes,No,No,No,No
 People Internal Gains Nominal, CORE_MID,BLDG_OCC_SCH_WO_SB,CORE_MID,983.54,52.9,52.9,5.382E-002,18.579,0.300,0.700,AutoCalculate,ACTIVITY_SCH,No,3.8200E-008,0.0,52.9,0.0,51.7,0.0,16.3,5.3E-008,52.9,0.0,0.0,Zone Averaged,WORK_EFF_SCH,Clothing Insulation Schedule,N/A,CLOTHING_SCH,AIR_VELO_SCH,Yes,No,No,No,No
 People Internal Gains Nominal, CORE_TOP,BLDG_OCC_SCH_WO_SB,CORE_TOP,983.54,52.9,52.9,5.382E-002,18.579,0.300,0.700,AutoCalculate,ACTIVITY_SCH,No,3.8200E-008,0.0,52.9,0.0,51.7,0.0,16.3,5.3E-008,52.9,0.0,0.0,Zone Averaged,WORK_EFF_SCH,Clothing Insulation Schedule,N/A,CLOTHING_SCH,AIR_VELO_SCH,Yes,No,No,No,No
 People Internal Gains Nominal, PERIMETER_TOP_ZN_3,BLDG_OCC_SCH_WO_SB,PERIMETER_TOP_ZN_3,207.34,11.2,11.2,5.382E-002,18.579,0.300,0.700,AutoCalculate,ACTIVITY_SCH,No,3.8200E-008,0.0,11.2,0.0,10.9,0.0,3.4,1.1E-008,11.2,0.0,0.0,Zone Averaged,WORK_EFF_SCH,Clothing Insulation Schedule,N/A,CLOTHING_SCH,AIR_VELO_SCH,Yes,No,No,No,No
 People Internal Gains Nominal, PERIMETER_TOP_ZN_2,BLDG_OCC_SCH_WO_SB,PERIMETER_TOP_ZN_2,131.26,7.1,7.1,5.382E-002,18.579,0.300,0.700,AutoCalculate,ACTIVITY_SCH,No,3.8200E-008,0.0,7.1,0.0,6.9,0.0,2.2,7.1E-009,7.1,0.0,0.0,Zone Averaged,WORK_EFF_SCH,Clothing Insulation Schedule,N/A,CLOTHING_SCH,AIR_VELO_SCH,Yes,No,No,No,No
 People Internal Gains Nominal, PERIMETER_TOP_ZN_1,BLDG_OCC_SCH_WO_SB,PERIMETER_TOP_ZN_1,207.34,11.2,11.2,5.382E-002,18.579,0.300,0.700,AutoCalculate,ACTIVITY_SCH,No,3.8200E-008,0.0,11.2,0.0,10.9,0.0,3.4,1.1E-008,11.2,0.0,0.0,Zone Averaged,WORK_EFF_SCH,Clothing Insulation Schedule,N/A,CLOTHING_SCH,AIR_VELO_SCH,Yes,No,No,No,No
 People Internal Gains Nominal, PERIMETER_TOP_ZN_4,BLDG_OCC_SCH_WO_SB,PERIMETER_TOP_ZN_4,131.25,7.1,7.1,5.382E-002,18.579,0.300,0.700,AutoCalculate,ACTIVITY_SCH,No,3.8200E-008,0.0,7.1,0.0,6.9,0.0,2.2,7.1E-009,7.1,0.0,0.0,Zone Averaged,WORK_EFF_SCH,Clothing Insulation Schedule,N/A,CLOTHING_SCH,AIR_VELO_SCH,Yes,No,No,No,No
 People Internal Gains Nominal, PERIMETER_BOT_ZN_3,BLDG_OCC_SCH_WO_SB,PERIMETER_BOT_ZN_3,207.34,11.2,11.2,5.382E-002,18.579,0.300,0.700,AutoCalculate,ACTIVITY_SCH,No,3.8200E-008,0.0,11.2,0.0,10.9,0.0,3.4,1.1E-008,11.2,0.0,0.0,Zone Averaged,WORK_EFF_SCH,Clothing Insulation Schedule,N/A,CLOTHING_SCH,AIR_VELO_SCH,Yes,No,No,No,No
 People Internal Gains Nominal, PERIMETER_BOT_ZN_2,BLDG_OCC_SCH_WO_SB,PERIMETER_BOT_ZN_2,131.26,7.1,7.1,5.382E-002,18.579,0.300,0.700,AutoCalculate,ACTIVITY_SCH,No,3.8200E-008,0.0,7.1,0.0,6.9,0.0,2.2,7.1E-009,7.1,0.0,0.0,Zone Averaged,WORK_EFF_SCH,Clothing Insulation Schedule,N/A,CLOTHING_SCH,AIR_VELO_SCH,Yes,No,No,No,No
 People Internal Gains Nominal, PERIMETER_BOT_ZN_1,BLDG_OCC_SCH_WO_SB,PERIMETER_BOT_ZN_1,207.34,11.2,11.2,5.382E-002,18.579,0.300,0.700,AutoCalculate,ACTIVITY_SCH,No,3.8200E-008,0.0,11.2,0.0,10.9,0.0,3.4,1.1E-008,11.2,0.0,0.0,Zone Averaged,WORK_EFF_SCH,Clothing Insulation Schedule,N/A,CLOTHING_SCH,AIR_VELO_SCH,Yes,No,No,No,No
 People Internal Gains Nominal, PERIMETER_BOT_ZN_4,BLDG_OCC_SCH_WO_SB,PERIMETER_BOT_ZN_4,131.25,7.1,7.1,5.382E-002,18.579,0.300,0.700,AutoCalculate,ACTIVITY_SCH,No,3.8200E-008,0.0,7.1,0.0,6.9,0.0,2.2,7.1E-009,7.1,0.0,0.0,Zone Averaged,WORK_EFF_SCH,Clothing Insulation Schedule,N/A,CLOTHING_SCH,AIR_VELO_SCH,Yes,No,No,No,No
 People Internal Gains Nominal, PERIMETER_MID_ZN_3,BLDG_OCC_SCH_WO_SB,PERIMETER_MID_ZN_3,207.34,11.2,11.2,5.382E-002,18.579,0.300,0.700,AutoCalculate,ACTIVITY_SCH,No,3.8200E-008,0.0,11.2,0.0,10.9,0.0,3.4,1.1E-008,11.2,0.0,0.0,Zone Averaged,WORK_EFF_SCH,Clothing Insulation Schedule,N/A,CLOTHING_SCH,AIR_VELO_SCH,Yes,No,No,No,No
 People Internal Gains Nominal, PERIMETER_MID_ZN_2,BLDG_OCC_SCH_W_SB,PERIMETER_MID_ZN_2,131.26,7.1,7.1,5.382E-002,18.579,0.300,0.700,AutoCalculate,ACTIVITY_SCH,No,3.8200E-008,0.0,7.1,0.0,6.7,0.0,2.1,7.1E-009,7.1,0.0,0.0,Zone Averaged,WORK_EFF_SCH,Clothing Insulation Schedule,N/A,CLOTHING_SCH,AIR_VELO_SCH,Yes,No,No,No,No
 People Internal Gains Nominal, PERIMETER_MID_ZN_1,BLDG_OCC_SCH_WO_SB,PERIMETER_MID_ZN_1,207.34,11.2,11.2,5.382E-002,18.579,0.300,0.700,AutoCalculate,ACTIVITY_SCH,No,3.8200E-008,0.0,11.2,0.0,10.9,0.0,3.4,1.1E-008,11.2,0.0,0.0,Zone Averaged,WORK_EFF_SCH,Clothing Insulation Schedule,N/A,CLOTHING_SCH,AIR_VELO_SCH,Yes,No,No,No,No
 People Internal Gains Nominal, PERIMETER_MID_ZN_4,BLDG_OCC_SCH_WO_SB,PERIMETER_MID_ZN_4,131.25,7.1,7.1,5.382E-002,18.579,0.300,0.700,AutoCalculate,ACTIVITY_SCH,No,3.8200E-008,0.0,7.1,0.0,6.9,0.0,2.2,7.1E-009,7.1,0.0,0.0,Zone Averaged,WORK_EFF_SCH,Clothing Insulation Schedule,N/A,CLOTHING_SCH,AIR_VELO_SCH,Yes,No,No,No,No
! <Lights Internal Gains Nominal>,Name,Schedule Name,Zone Name,Zone Floor Area {m2},# Zone Occupants,Lighting Level {W},Lights/Floor Area {W/m2},Lights per person {W/person},Fraction Return Air,Fraction Radiant,Fraction Short Wave,Fraction Convected,Fraction Replaceable,End-Use, Minimum Lighting Level for All Day Types {W},Maximum Lighting Level for All Day Types {W},Minimum Lighting Level for Weekdays {W}, Maximum Lighting Level for Weekdays {W},Minimum Lighting Level for Weekends/Holidays {W}, Maximum Lighting Level for Weekends /Holidays {W},Minimum Lighting Level for Summer Design Days {W}, Maximum Lighting Level for Summer Design Days {W},Minimum Lighting Level for Winter Design Days {W}, Maximum Lighting Level for Winter Design Days {W}
 Lights Internal Gains Nominal, CORE_BOTTOM_LIGHTS,LTG_SCH_OFFICE,CORE_BOTTOM,983.54,52.9,5708.430,5.804,107.831,0.000,0.700,0.200,0.100,1.000,LightsWired,0.000,5708.430,193.790,3488.7,193.790,1162.900,5708.430,5708.430,0.000,0.000
 Lights Internal Gains Nominal, CORE_MID_LIGHTS,LTG_SCH_OFFICE,CORE_MID,983.54,52.9,5708.430,5.804,107.831,0.000,0.700,0.200,0.100,1.000,LightsWired,0.000,5708.430,193.790,3488.7,193.790,1162.900,5708.430,5708.430,0.000,0.000
 Lights Internal Gains Nominal, CORE_TOP_LIGHTS,LTG_SCH_OFFICE,CORE_TOP,983.54,52.9,5708.430,5.804,107.831,0.000,0.700,0.200,0.100,1.000,LightsWired,0.000,5708.430,193.790,3488.7,193.790,1162.900,5708.430,5708.430,0.000,0.000
 Lights Internal Gains Nominal, PERIMETER_TOP_ZN_3_LIGHTS,LTG_SCH_OFFICE,PERIMETER_TOP_ZN_3,207.34,11.2,1203.387,5.804,107.831,0.000,0.700,0.200,0.100,1.000,LightsWired,0.000,1203.387,40.853,735.4,40.853,245.150,1203.387,1203.387,0.000,0.000
 Lights Internal Gains Nominal, PERIMETER_TOP_ZN_2_LIGHTS,LTG_SCH_OFFICE,PERIMETER_TOP_ZN_2,131.26,7.1,761.844,5.804,107.831,0.000,0.700,0.200,0.100,1.000,LightsWired,0.000,761.844,25.863,465.6,25.863,155.200,761.844,761.844,0.000,0.000
 Lights Internal Gains Nominal, PERIMETER_TOP_ZN_1_LIGHTS,LTG_SCH_OFFICE,PERIMETER_TOP_ZN_1,207.34,11.2,1203.387,5.804,107.831,0.000,0.700,0.200,0.100,1.000,LightsWired,0.000,1203.387,40.853,735.4,40.853,245.150,1203.387,1203.387,0.000,0.000
 Lights Internal Gains Nominal, PERIMETER_TOP_ZN_4_LIGHTS,LTG_SCH_OFFICE,PERIMETER_TOP_ZN_4,131.25,7.1,761.794,5.804,107.831,0.000,0.700,0.200,0.100,1.000,LightsWired,0.000,761.794,25.861,465.6,25.861,155.190,761.794,761.794,0.000,0.000
 Lights Internal Gains Nominal, PERIMETER_BOT_ZN_3_LIGHTS,LTG_SCH_OFFICE,PERIMETER_BOT_ZN_3,207.34,11.2,1203.387,5.804,107.831,0.000,0.700,0.200,0.100,1.000,LightsWired,0.000,1203.387,40.853,735.4,40.853,245.150,1203.387,1203.387,0.000,0.000
 Lights Internal Gains Nominal, PERIMETER_BOT_ZN_2_LIGHTS,LTG_SCH_OFFICE,PERIMETER_BOT_ZN_2,131.26,7.1,761.844,5.804,107.831,0.000,0.700,0.200,0.100,1.000,LightsWired,0.000,761.844,25.863,465.6,25.863,155.200,761.844,761.844,0.000,0.000
 Lights Internal Gains Nominal, PERIMETER_BOT_ZN_1_LIGHTS,LTG_SCH_OFFICE,PERIMETER_BOT_ZN_1,207.34,11.2,1203.387,5.804,107.831,0.000,0.700,0.200,0.100,1.000,LightsWired,0.000,1203.387,40.853,735.4,40.853,245.150,1203.387,1203.387,0.000,0.000
 Lights Internal Gains Nominal, PERIMETER_BOT_ZN_4_LIGHTS,LTG_SCH_OFFICE,PERIMETER_BOT_ZN_4,131.25,7.1,761.794,5.804,107.831,0.000,0.700,0.200,0.100,1.000,LightsWired,0.000,761.794,25.861,465.6,25.861,155.190,761.794,761.794,0.000,0.000
 Lights Internal Gains Nominal, PERIMETER_MID_ZN_3_LIGHTS,LTG_SCH_OFFICE,PERIMETER_MID_ZN_3,207.34,11.2,1203.387,5.804,107.831,0.000,0.700,0.200,0.100,1.000,LightsWired,0.000,1203.387,40.853,735.4,40.853,245.150,1203.387,1203.387,0.000,0.000
 Lights Internal Gains Nominal, PERIMETER_MID_ZN_2_LIGHTS,LTG_SCH_OFFICE,PERIMETER_MID_ZN_2,131.26,7.1,761.844,5.804,107.831,0.000,0.700,0.200,0.100,1.000,LightsWired,0.000,761.844,25.863,465.6,25.863,155.200,761.844,761.844,0.000,0.000
 Lights Internal Gains Nominal, PERIMETER_MID_ZN_1_LIGHTS,LTG_SCH_OFFICE,PERIMETER_MID_ZN_1,207.34,11.2,1203.387,5.804,107.831,0.000,0.700,0.200,0.100,1.000,LightsWired,0.000,1203.387,40.853,735.4,40.853,245.150,1203.387,1203.387,0.000,0.000
 Lights Internal Gains Nominal, PERIMETER_MID_ZN_4_LIGHTS,LTG_SCH_OFFICE,PERIMETER_MID_ZN_4,131.25,7.1,761.794,5.804,107.831,0.000,0.700,0.200,0.100,1.000,LightsWired,0.000,761.794,25.861,465.6,25.861,155.190,761.794,761.794,0.000,0.000
! <ElectricEquipment Internal Gains Nominal>,Name,Schedule Name,Zone Name,Zone Floor Area {m2},# Zone Occupants,Equipment Level {W},Equipment/Floor Area {W/m2},Equipment per person {W/person},Fraction Latent,Fraction Radiant,Fraction Lost,Fraction Convected,End-Use SubCategory,Minimum Equipment Level for All Day Types {W},Maximum Equipment Level for All Day Types {W},Minimum Equipment Level for Weekdays {W}, Maximum Equipment Level for Weekdays {W},Minimum Equipment Level for Weekends/Holidays {W}, Maximum Equipment Level for Weekends /Holidays {W},Minimum Equipment Level for Summer Design Days {W}, Maximum Equipment Level for Summer Design Days {W},Minimum Equipment Level for Winter Design Days {W}, Maximum Equipment Level for Winter Design Days {W}
 ElectricEquipment Internal Gains Nominal, CORE_BOTTOM_MISCPLUG_EQUIP,BLDG_EQUIP_SCH,CORE_BOTTOM,983.54,52.9,7937.156,8.070,149.931,0.000,0.500,0.000,0.500,MiscPlug,0.000,7937.156,2442.055,6808.320,1831.541,3782.400,7937.156,7937.156,0.000,0.000
 ElectricEquipment Internal Gains Nominal, CORE_MID_MISCPLUG_EQUIP,BLDG_EQUIP_SCH,CORE_MID,983.54,52.9,7937.156,8.070,149.931,0.000,0.500,0.000,0.500,MiscPlug,0.000,7937.156,2442.055,6808.320,1831.541,3782.400,7937.156,7937.156,0.000,0.000
 ElectricEquipment Internal Gains Nominal, CORE_TOP_MISCPLUG_EQUIP,BLDG_EQUIP_SCH,CORE_TOP,983.54,52.9,7937.156,8.070,149.931,0.000,0.500,0.000,0.500,MiscPlug,0.000,7937.156,2442.055,6808.320,1831.541,3782.400,7937.156,7937.156,0.000,0.000
 ElectricEquipment Internal Gains Nominal, PERIMETER_TOP_ZN_3_MISCPLUG_EQUIP,BLDG_EQUIP_SCH,PERIMETER_TOP_ZN_3,207.34,11.2,1673.214,8.070,149.930,0.000,0.500,0.000,0.500,MiscPlug,0.000,1673.214,514.804,1435.246,386.103,797.359,1673.214,1673.214,0.000,0.000
 ElectricEquipment Internal Gains Nominal, PERIMETER_TOP_ZN_2_MISCPLUG_EQUIP,BLDG_EQUIP_SCH,PERIMETER_TOP_ZN_2,131.26,7.1,1059.217,8.069,149.921,0.000,0.500,0.000,0.500,MiscPlug,0.000,1059.217,325.893,908.573,244.420,504.763,1059.217,1059.217,0.000,0.000
 ElectricEquipment Internal Gains Nominal, PERIMETER_TOP_ZN_1_MISCPLUG_EQUIP,BLDG_EQUIP_SCH,PERIMETER_TOP_ZN_1,207.34,11.2,1673.203,8.070,149.929,0.000,0.500,0.000,0.500,MiscPlug,0.000,1673.203,514.801,1435.237,386.101,797.354,1673.203,1673.203,0.000,0.000
 ElectricEquipment Internal Gains Nominal, PERIMETER_TOP_ZN_4_MISCPLUG_EQUIP,BLDG_EQUIP_SCH,PERIMETER_TOP_ZN_4,131.25,7.1,1059.210,8.070,149.930,0.000,0.500,0.000,0.500,MiscPlug,0.000,1059.210,325.891,908.567,244.418,504.760,1059.210,1059.210,0.000,0.000
 ElectricEquipment Internal Gains Nominal, PERIMETER_BOT_ZN_3_MISCPLUG_EQUIP,BLDG_EQUIP_SCH,PERIMETER_BOT_ZN_3,207.34,11.2,1673.214,8.070,149.930,0.000,0.500,0.000,0.500,MiscPlug,0.000,1673.214,514.804,1435.246,386.103,797.359,1673.214,1673.214,0.000,0.000
 ElectricEquipment Internal Gains Nominal, PERIMETER_BOT_ZN_2_MISCPLUG_EQUIP,BLDG_EQUIP_SCH,PERIMETER_BOT_ZN_2,131.26,7.1,1059.217,8.069,149.921,0.000,0.500,0.000,0.500,MiscPlug,0.000,1059.217,325.893,908.573,244.420,504.763,1059.217,1059.217,0.000,0.000
 ElectricEquipment Internal Gains Nominal, PERIMETER_BOT_ZN_1_MISCPLUG_EQUIP,BLDG_EQUIP_SCH,PERIMETER_BOT_ZN_1,207.34,11.2,1673.203,8.070,149.929,0.000,0.500,0.000,0.500,MiscPlug,0.000,1673.203,514.801,1435.237,386.101,797.354,1673.203,1673.203,0.000,0.000
 ElectricEquipment Internal Gains Nominal, PERIMETER_BOT_ZN_4_MISCPLUG_EQUIP,BLDG_EQUIP_SCH,PERIMETER_BOT_ZN_4,131.25,7.1,1059.210,8.070,149.930,0.000,0.500,0.000,0.500,MiscPlug,0.000,1059.210,325.891,908.567,244.418,504.760,1059.210,1059.210,0.000,0.000
 ElectricEquipment Internal Gains Nominal, PERIMETER_MID_ZN_3_MISCPLUG_EQUIP,BLDG_EQUIP_SCH,PERIMETER_MID_ZN_3,207.34,11.2,1673.214,8.070,149.930,0.000,0.500,0.000,0.500,MiscPlug,0.000,1673.214,514.804,1435.246,386.103,797.359,1673.214,1673.214,0.000,0.000
 ElectricEquipment Internal Gains Nominal, PERIMETER_MID_ZN_2_MISCPLUG_EQUIP,BLDG_EQUIP_SCH,PERIMETER_MID_ZN_2,131.26,7.1,1059.217,8.069,149.921,0.000,0.500,0.000,0.500,MiscPlug,0.000,1059.217,325.893,908.573,244.420,504.763,1059.217,1059.217,0.000,0.000
 ElectricEquipment Internal Gains Nominal, PERIMETER_MID_ZN_1_MISCPLUG_EQUIP,BLDG_EQUIP_SCH,PERIMETER_MID_ZN_1,207.34,11.2,1673.203,8.070,149.929,0.000,0.500,0.000,0.500,MiscPlug,0.000,1673.203,514.801,1435.237,386.101,797.354,1673.203,1673.203,0.000,0.000
 ElectricEquipment Internal Gains Nominal, PERIMETER_MID_ZN_4_MISCPLUG_EQUIP,BLDG_EQUIP_SCH,PERIMETER_MID_ZN_4,131.25,7.1,1059.210,8.070,149.930,0.000,0.500,0.000,0.500,MiscPlug,0.000,1059.210,325.891,908.567,244.418,504.760,1059.210,1059.210,0.000,0.000
 ElectricEquipment Internal Gains Nominal, CORE_BOTTOM_ELEVATORS_EQUIP,BLDG_ELEVATORS,CORE_BOTTOM,983.54,52.9,8517.820,8.660,160.900,0.000,0.500,0.000,0.500,ElevatorLift,1022.138,5877.296,1022.138,5877.296,1022.138,2129.455,5877.296,5877.296,1022.138,1022.138
 ElectricEquipment Internal Gains Nominal, ELEVATORS_LIGHTS_FAN,ELEV_LIGHT_FAN_SCH_ADD_DF,CORE_BOTTOM,983.54,52.9,105.310,0.107,1.989,0.000,0.500,0.000,0.500,ElevatorLightsFan,0.000,72.664,0.000,72.664,0.000,26.328,72.664,72.664,0.000,0.000
! <Construction CTF>,Construction Name,Index,#Layers,#CTFs,Time Step {hours},ThermalConductance {w/m2-K},OuterThermalAbsorptance,InnerThermalAbsorptance,OuterSolarAbsorptance,InnerSolarAbsorptance,Roughness
! <Material CTF Summary>,Material Name,Thickness {m},Conductivity {w/m-K},Density {kg/m3},Specific Heat {J/kg-K},ThermalResistance {m2-K/w}
! <Material:Air>,Material Name,ThermalResistance {m2-K/w}
! <CTF>,Time,Outside,Cross,Inside,Flux (except final one)
 Construction CTF,SWINGING DOOR_CON,   1,   1,   1,   0.167,      2.101    ,   0.900,   0.900,   0.700,   0.700,MediumRough
 Material CTF Summary,OPAQUE DOOR PANEL_CON,  0.0000,         0.000,      0.000,        0.000,  0.4760    
 CTF,   1,       0.0000000    ,       0.0000000    ,      -0.0000000    ,      -0.0000000    
 CTF,   0,       2.1009573    ,       2.1009573    ,       2.1009573    
 Construction CTF,INTERIORFURNISHINGS,   2,   1,   9,   0.167,     0.8000    ,   0.900,   0.900,   0.700,   0.700,MediumSmooth
 Material CTF Summary,Std Wood 6inch,  0.1500,         0.120,    540.000,     1210.000,   1.250    
 CTF,   9,     -0.27580628E-02,      0.97439125E-12,     -0.27580628E-02,      0.28516790E-03
 CTF,   8,      0.73590997E-01,      0.21837543E-08,      0.73590997E-01,     -0.77836043E-02
 CTF,   7,     -0.82599318    ,      0.23162835E-06,     -0.82599318    ,      0.89703933E-01
 CTF,   6,       5.1113916    ,      0.48671053E-05,       5.1113916    ,     -0.57224845    
 CTF,   5,      -19.214933    ,      0.30163627E-04,      -19.214933    ,       2.2266322    
 CTF,   4,       45.557404    ,      0.63181060E-04,       45.557404    ,      -5.4853312    
 CTF,   3,      -68.275533    ,      0.44785456E-04,      -68.275533    ,       8.5710568    
 CTF,   2,       62.555368    ,      0.93952058E-05,       62.555368    ,      -8.2111738    
 CTF,   1,      -31.904423    ,      0.39200004E-06,      -31.904423    ,       4.3886678    
 CTF,   0,       6.9260389    ,      0.77047546E-09,       6.9260389    
 Construction CTF,DROPCEILING,   4,   1,   3,   0.167,      4.488    ,   0.900,   0.900,   0.700,   0.700,MediumSmooth
 Material CTF Summary,AC02 Acoustic Ceiling,  0.0127,         0.057,    288.000,     1339.000,  0.2228    
 CTF,   3,     -0.21589802E-09,      0.15643069E-09,     -0.21589802E-09,      0.12999471E-21
 CTF,   2,      0.50772448E-02,      0.30006816E-02,      0.50772448E-02,     -0.13693132E-08
 CTF,   1,      -2.5944910    ,       1.4597758    ,      -2.5944910    ,      0.76344767E-02
 CTF,   0,       7.0433378    ,       2.9911476    ,       7.0433378    
 Construction CTF,INT_WALL,   7,   2,   4,   0.167,      6.299    ,   0.900,   0.900,   0.700,   0.700,Smooth
 Material CTF Summary,G01 13mm gypsum board,  0.0127,         0.160,    800.000,     1090.000,  0.7937E-01
 Material CTF Summary,G01 13mm gypsum board,  0.0127,         0.160,    800.000,     1090.000,  0.7937E-01
 CTF,   4,      0.68458728E-09,      0.26079551E-09,      0.68458728E-09,     -0.34507121E-18
 CTF,   3,     -0.72180374E-03,      0.24295686E-03,     -0.72180374E-03,      0.69691454E-09
 CTF,   2,      0.83054762    ,      0.27682775    ,      0.83054762    ,     -0.35168967E-03
 CTF,   1,      -12.650482    ,       3.3590720    ,      -12.650482    ,      0.19281313    
 CTF,   0,       16.907513    ,       1.4507143    ,       16.907513    
 Construction CTF,INT_SLAB_FLOOR,  12,   2,   7,   0.167,      3.839    ,   0.900,   0.900,   0.700,   0.700,MediumRough
 Material CTF Summary,100mm Normalweight concrete floor,  0.1016,         2.310,   2322.000,      832.000,  0.4398E-01
 Material CTF Summary,CP02 CARPET PAD,  0.0000,         0.000,      0.000,        0.000,  0.2165    
 CTF,   7,      0.43260499E-16,      0.34524919E-16,      0.52793240E-17,       0.0000000    
 CTF,   6,      0.69434179E-09,      0.98085174E-11,      0.18162501E-10,     -0.40870994E-12
 CTF,   5,     -0.12888762E-04,      0.28373718E-06,     -0.16918523E-06,      0.92361873E-08
 CTF,   4,      0.25174112E-01,      0.33697681E-03,      0.22646198E-03,     -0.31467795E-04
 CTF,   3,      -3.7600775    ,      0.27170599E-01,     -0.48495626E-01,      0.94171705E-02
 CTF,   2,       51.553741    ,      0.22121684    ,       1.2284947    ,     -0.25833933    
 CTF,   1,      -128.86110    ,      0.21944682    ,      -5.1479470    ,       1.1228340    
 CTF,   0,       81.526494    ,      0.16043334E-01,       4.4519351    
 Construction CTF,INT_SLAB_CEILING,  13,   2,   7,   0.167,      3.839    ,   0.900,   0.900,   0.700,   0.700,VeryRough
 Material CTF Summary,CP02 CARPET PAD,  0.0000,         0.000,      0.000,        0.000,  0.2165    
 Material CTF Summary,100mm Normalweight concrete floor,  0.1016,         2.310,   2322.000,      832.000,  0.4398E-01
 CTF,   7,      0.52793240E-17,      0.34524919E-16,      0.43260499E-16,       0.0000000    
 CTF,   6,      0.18162501E-10,      0.98085174E-11,      0.69434179E-09,     -0.40870994E-12
 CTF,   5,     -0.16918523E-06,      0.28373718E-06,     -0.12888762E-04,      0.92361873E-08
 CTF,   4,      0.22646198E-03,      0.33697681E-03,      0.25174112E-01,     -0.31467795E-04
 CTF,   3,     -0.48495626E-01,      0.27170599E-01,      -3.7600775    ,      0.94171705E-02
 CTF,   2,       1.2284947    ,      0.22121684    ,       51.553741    ,     -0.25833933    
 CTF,   1,      -5.1479470    ,      0.21944682    ,      -128.86110    ,       1.1228340    
 CTF,   0,       4.4519351    ,      0.16043334E-01,       81.526494    
 Construction CTF,NONRES_ROOF,  17,   3,   3,   0.167,     0.1864    ,   0.900,   0.900,   0.700,   0.700,Rough
 Material CTF Summary,F13 Built-up roofing,  0.0095,         0.160,   1120.000,     1460.000,  0.5938E-01
 Material CTF Summary,NONRES_ROOF_INSULATION,  0.0000,         0.000,      0.000,        0.000,   5.307    
 Material CTF Summary,F08 Metal surface,  0.0008,        45.280,   7824.000,      500.000,  0.1767E-04
 CTF,   3,     -0.62854340E-06,      0.84784826E-09,     -0.38512804E-05,      0.91756347E-17
 CTF,   2,      0.78257096    ,      0.11428808E-02,       1.0614277    ,     -0.73836085E-06
 CTF,   1,      -21.991499    ,      0.76199851E-01,      -6.3161914    ,      0.20349372    
 CTF,   0,       21.357363    ,      0.71091016E-01,       5.4032014    
 Construction CTF,NONRES_EXT_WALL_GRD,  20,   4,   7,   0.167,     0.4963    ,   0.900,   0.900,   0.700,   0.700,Smooth
 Material CTF Summary,F07 25mm stucco,  0.0254,         0.720,   1856.000,      840.000,  0.3528E-01
 Material CTF Summary,G01 16mm gypsum board,  0.0159,         0.160,    800.000,     1090.000,  0.9938E-01
 Material CTF Summary,NONRES_EXTERIOR_WALL_INSULATION_GRD,  0.0000,         0.000,      0.000,        0.000,   1.781    
 Material CTF Summary,G01 16mm gypsum board,  0.0159,         0.160,    800.000,     1090.000,  0.9938E-01
 CTF,   7,     -0.34899309E-12,      0.71341365E-15,     -0.12063995E-12,      0.11056198E-15
 CTF,   6,      0.31964619E-07,      0.14386379E-09,      0.72949101E-08,     -0.15297586E-12
 CTF,   5,     -0.20668886E-03,      0.12069764E-05,     -0.10606906E-03,      0.72002597E-08
 CTF,   4,      0.31134388    ,      0.57707282E-03,      0.10659731    ,     -0.36300877E-04
 CTF,   3,      -7.6460366    ,      0.17597044E-01,      -2.4516196    ,      0.30871179E-01
 CTF,   2,       42.122891    ,      0.61681621E-01,       15.726221    ,     -0.34728460    
 CTF,   1,      -81.504432    ,      0.27489519E-01,      -29.554779    ,       1.0990493    
 CTF,   0,       46.824333    ,      0.54626793E-03,       16.281579    
 Construction CTF,NONRES_EXT_WALL_MID,  21,   4,   7,   0.167,     0.4907    ,   0.900,   0.900,   0.700,   0.700,Smooth
 Material CTF Summary,F07 25mm stucco,  0.0254,         0.720,   1856.000,      840.000,  0.3528E-01
 Material CTF Summary,G01 16mm gypsum board,  0.0159,         0.160,    800.000,     1090.000,  0.9938E-01
 Material CTF Summary,NONRES_EXTERIOR_WALL_INSULATION_MID,  0.0000,         0.000,      0.000,        0.000,   1.804    
 Material CTF Summary,G01 16mm gypsum board,  0.0159,         0.160,    800.000,     1090.000,  0.9938E-01
 CTF,   7,     -0.35248218E-12,      0.86833836E-15,     -0.12082203E-12,      0.11089560E-15
 CTF,   6,      0.32029947E-07,      0.14230652E-09,      0.73093307E-08,     -0.15333007E-12
 CTF,   5,     -0.20701518E-03,      0.11934730E-05,     -0.10623169E-03,      0.72142720E-08
 CTF,   4,      0.31171778    ,      0.57042913E-03,      0.10673215    ,     -0.36354454E-04
 CTF,   3,      -7.6534230    ,      0.17389373E-01,      -2.4538128    ,      0.30907429E-01
 CTF,   2,       42.147231    ,      0.60937802E-01,       15.735171    ,     -0.34755580    
 CTF,   1,      -81.523061    ,      0.27151788E-01,      -29.562791    ,       1.0994463    
 CTF,   0,       46.824333    ,      0.53943493E-03,       16.281396    
 Construction CTF,NONRES_EXT_WALL_TOP,  22,   4,   7,   0.167,     0.6059    ,   0.900,   0.900,   0.700,   0.700,Smooth
 Material CTF Summary,F07 25mm stucco,  0.0254,         0.720,   1856.000,      840.000,  0.3528E-01
 Material CTF Summary,G01 16mm gypsum board,  0.0159,         0.160,    800.000,     1090.000,  0.9938E-01
 Material CTF Summary,NONRES_EXTERIOR_WALL_INSULATION_TOP,  0.0000,         0.000,      0.000,        0.000,   1.416    
 Material CTF Summary,G01 16mm gypsum board,  0.0159,         0.160,    800.000,     1090.000,  0.9938E-01
 CTF,   7,     -0.34003326E-12,      0.10587728E-14,     -0.10362110E-12,      0.10156885E-15
 CTF,   6,      0.30685099E-07,      0.17377759E-09,      0.70124784E-08,     -0.14604764E-12
 CTF,   5,     -0.20027796E-03,      0.14687154E-05,     -0.10287063E-03,      0.69256609E-08
 CTF,   4,      0.30396857    ,      0.70685606E-03,      0.10393882    ,     -0.35247175E-04
 CTF,   3,      -7.5002666    ,      0.21681124E-01,      -2.4083433    ,      0.30155984E-01
 CTF,   2,       41.642471    ,      0.76394252E-01,       15.549432    ,     -0.34193213    
 CTF,   1,      -81.136638    ,      0.34202797E-01,      -29.396480    ,       1.0912109    
 CTF,   0,       46.824335    ,      0.68273867E-03,       16.285225    
 Construction CTF,PERIMETER_BOT_ZN_1_FLOOR_FFACTOR,  39,   2,   7,   0.167,     0.2202    ,   0.000,   0.900,   0.000,   0.700,MediumRough
 Material CTF Summary,~FC_Insulation_1,  0.0000,         0.000,      0.000,        0.000,   4.464    
 Material CTF Summary,~FC_Concrete,  0.1500,         1.950,   2240.000,      900.000,  0.7692E-01
 CTF,   7,     -0.19125429E-08,     -0.51149546E-15,      0.67895133E-14,     -0.92699566E-16
 CTF,   6,      0.61748882E-05,      0.42195338E-08,      0.31882380E-02,     -0.26745612E-04
 CTF,   5,     -0.44348058E-03,      0.24991643E-05,     -0.22363183    ,      0.19553316E-02
 CTF,   4,      0.10197642E-01,      0.11375831E-03,       4.8280010    ,     -0.45250132E-01
 CTF,   3,     -0.89539867E-01,      0.90461966E-03,      -38.012690    ,      0.39855730    
 CTF,   2,      0.31792465    ,      0.15048863E-02,       116.46697    ,      -1.4177122    
 CTF,   1,     -0.45886872    ,      0.45850654E-03,      -143.89731    ,       2.0488756    
 CTF,   0,      0.22371897    ,      0.11095467E-04,       60.838472    
 Construction CTF,PERIMETER_BOT_ZN_2_FLOOR_FFACTOR,  40,   2,   7,   0.167,     0.2324    ,   0.000,   0.900,   0.000,   0.700,MediumRough
 Material CTF Summary,~FC_Insulation_2,  0.0000,         0.000,      0.000,        0.000,   4.227    
 Material CTF Summary,~FC_Concrete,  0.1500,         1.950,   2240.000,      900.000,  0.7692E-01
 CTF,   7,     -0.18104447E-08,     -0.43400190E-15,      0.62975649E-14,     -0.85672293E-16
 CTF,   6,      0.65061964E-05,      0.44532622E-08,      0.31872839E-02,     -0.26737608E-04
 CTF,   5,     -0.46798848E-03,      0.26385828E-05,     -0.22357759    ,      0.19548529E-02
 CTF,   4,      0.10765659E-01,      0.12010859E-03,       4.8270976    ,     -0.45241449E-01
 CTF,   3,     -0.94540660E-01,      0.95521212E-03,      -38.007587    ,      0.39850089    
 CTF,   2,      0.33569853    ,      0.15890733E-02,       116.45703    ,      -1.4175793    
 CTF,   1,     -0.48453324    ,      0.48428004E-03,      -143.89146    ,       2.0487795    
 CTF,   0,      0.23623420    ,      0.11684213E-04,       60.838472    
 Construction CTF,PERIMETER_BOT_ZN_3_FLOOR_FFACTOR,  41,   2,   7,   0.167,     0.2202    ,   0.000,   0.900,   0.000,   0.700,MediumRough
 Material CTF Summary,~FC_Insulation_3,  0.0000,         0.000,      0.000,        0.000,   4.464    
 Material CTF Summary,~FC_Concrete,  0.1500,         1.950,   2240.000,      900.000,  0.7692E-01
 CTF,   7,     -0.19125429E-08,     -0.51149547E-15,      0.67895133E-14,     -0.92699566E-16
 CTF,   6,      0.61748882E-05,      0.42195338E-08,      0.31882380E-02,     -0.26745612E-04
 CTF,   5,     -0.44348058E-03,      0.24991643E-05,     -0.22363183    ,      0.19553316E-02
 CTF,   4,      0.10197642E-01,      0.11375831E-03,       4.8280010    ,     -0.45250132E-01
 CTF,   3,     -0.89539867E-01,      0.90461966E-03,      -38.012690    ,      0.39855730    
 CTF,   2,      0.31792465    ,      0.15048863E-02,       116.46697    ,      -1.4177122    
 CTF,   1,     -0.45886872    ,      0.45850654E-03,      -143.89731    ,       2.0488756    
 CTF,   0,      0.22371897    ,      0.11095467E-04,       60.838472    
 Construction CTF,PERIMETER_BOT_ZN_4_FLOOR_FFACTOR,  42,   2,   7,   0.167,     0.2324    ,   0.000,   0.900,   0.000,   0.700,MediumRough
 Material CTF Summary,~FC_Insulation_4,  0.0000,         0.000,      0.000,        0.000,   4.226    
 Material CTF Summary,~FC_Concrete,  0.1500,         1.950,   2240.000,      900.000,  0.7692E-01
 CTF,   7,     -0.18103185E-08,     -0.43367408E-15,      0.62064235E-14,     -0.80231478E-16
 CTF,   6,      0.65066296E-05,      0.44535699E-08,      0.31872827E-02,     -0.26737598E-04
 CTF,   5,     -0.46802050E-03,      0.26387647E-05,     -0.22357752    ,      0.19548523E-02
 CTF,   4,      0.10766401E-01,      0.12011689E-03,       4.8270964    ,     -0.45241437E-01
 CTF,   3,     -0.94547192E-01,      0.95527815E-03,      -38.007580    ,      0.39850082    
 CTF,   2,      0.33572174    ,      0.15891833E-02,       116.45702    ,      -1.4175791    
 CTF,   1,     -0.48456676    ,      0.48431352E-03,      -143.89146    ,       2.0487794    
 CTF,   0,      0.23625054    ,      0.11685066E-04,       60.838472    
 Construction CTF,CORE_BOT_ZN_5_FLOOR_FFACTOR,  43,   2,   8,   0.167,     0.5650E-02,   0.000,   0.900,   0.000,   0.700,MediumRough
 Material CTF Summary,~FC_Insulation_5,  0.0000,         0.000,      0.000,        0.000,   176.9    
 Material CTF Summary,~FC_Concrete,  0.1500,         1.950,   2240.000,      900.000,  0.7692E-01
 CTF,   8,      0.57026216E-10,     -0.29656739E-13,      0.26072253E-13,     -0.16907584E-15
 CTF,   7,     -0.80728763E-07,      0.14958947E-11,     -0.10196182E-04,      0.85534123E-07
 CTF,   6,      0.59163330E-05,      0.23390251E-08,      0.39199948E-02,     -0.33137873E-04
 CTF,   5,     -0.14678961E-03,      0.29443049E-06,     -0.24001665    ,      0.21083805E-02
 CTF,   4,      0.15257864E-02,      0.63469284E-05,       4.9653291    ,     -0.46676227E-01
 CTF,   3,     -0.74362311E-02,      0.30151767E-04,      -38.474208    ,      0.40407555    
 CTF,   2,      0.17883035E-01,      0.32406056E-04,       117.10039    ,      -1.4265819    
 CTF,   1,     -0.20235698E-01,      0.62001922E-05,      -144.19380    ,       2.0537490    
 CTF,   0,      0.84795330E-02,      0.69040512E-07,       60.838472    
! <WindowConstruction>,Construction Name,Index,#Layers,Roughness,Conductance {W/m2-K},Conductance (Before Adjusted) {W/m2-K},Convection Coefficient Adjustment Ratio,SHGC,Solar Transmittance at Normal Incidence,Visible Transmittance at Normal Incidence
! <WindowMaterial:Glazing>, Material Name, Optical Data Type, Spectral Data Set Name, Thickness {m}, Solar Transmittance,Front Solar Reflectance, Back Solar Reflectance, Visible Transmittance, Front Visible Reflectance,Back Visible Reflectance,Infrared Transmittance, Front Thermal Emissivity, Back Thermal Emissivity,Conductivity {W/m-K},Dirt Factor,Solar Diffusing
 WindowConstruction,WINDOW_U_0.342_SHGC_EAST_0.379,35,1,VerySmooth,1.943,1.943,1.000,0.380,0.294,0.418
 WindowMaterial:Glazing,GLAZING LAYER EAST,SpectralAverage,,3.82380E-002,0.29270,0.50360,0.50360,0.41690,0.13592,0.17539,0.00000,0.84000,0.84000,0.11194,1.00000,No
 WindowConstruction,WINDOW_U_0.342_SHGC_SOUTH_0.379,36,1,VerySmooth,1.943,1.943,1.000,0.380,0.294,0.418
 WindowMaterial:Glazing,GLAZING LAYER SOUTH,SpectralAverage,,3.82380E-002,0.29270,0.50360,0.50360,0.41690,0.13592,0.17539,0.00000,0.84000,0.84000,0.11194,1.00000,No
 WindowConstruction,WINDOW_U_0.342_SHGC_WEST_0.379,37,1,VerySmooth,1.943,1.943,1.000,0.380,0.294,0.418
 WindowMaterial:Glazing,GLAZING LAYER WEST,SpectralAverage,,3.82380E-002,0.29270,0.50360,0.50360,0.41690,0.13592,0.17539,0.00000,0.84000,0.84000,0.11194,1.00000,No
 WindowConstruction,WINDOW_U_0.342_SHGC_NORTH_0.379,38,1,VerySmooth,1.943,1.943,1.000,0.380,0.294,0.418
 WindowMaterial:Glazing,GLAZING LAYER NORTH,SpectralAverage,,3.82380E-002,0.29270,0.50360,0.50360,0.41690,0.13592,0.17539,0.00000,0.84000,0.84000,0.11194,1.00000,No
! <Enclosure/Window Adjacency Daylighting Counts>, Enclosure Name, Number of Exterior Windows, Number of Exterior Windows in Adjacent Enclosures
Enclosure/Window Adjacency Daylighting Counts, PERIMETER_TOP_ZN_3,1,0
Enclosure/Window Adjacency Daylighting Counts, PERIMETER_TOP_ZN_2,1,0
Enclosure/Window Adjacency Daylighting Counts, PERIMETER_TOP_ZN_1,1,0
Enclosure/Window Adjacency Daylighting Counts, PERIMETER_TOP_ZN_4,1,0
Enclosure/Window Adjacency Daylighting Counts, PERIMETER_BOT_ZN_3,3,0
Enclosure/Window Adjacency Daylighting Counts, PERIMETER_BOT_ZN_2,2,0
Enclosure/Window Adjacency Daylighting Counts, PERIMETER_BOT_ZN_1,3,0
Enclosure/Window Adjacency Daylighting Counts, PERIMETER_BOT_ZN_4,2,0
Enclosure/Window Adjacency Daylighting Counts, PERIMETER_MID_ZN_3,1,0
Enclosure/Window Adjacency Daylighting Counts, PERIMETER_MID_ZN_2,1,0
Enclosure/Window Adjacency Daylighting Counts, PERIMETER_MID_ZN_1,1,0
Enclosure/Window Adjacency Daylighting Counts, PERIMETER_MID_ZN_4,1,0
! <Enclosure/Window Adjacency Daylighting Matrix>, Enclosure Name, Number of Adjacent Enclosures with Windows,Adjacent Enclosure Names - 1st 100 (max)
Enclosure/Window Adjacency Daylighting Matrix, PERIMETER_TOP_ZN_3,0
Enclosure/Window Adjacency Daylighting Matrix, PERIMETER_TOP_ZN_2,0
Enclosure/Window Adjacency Daylighting Matrix, PERIMETER_TOP_ZN_1,0
Enclosure/Window Adjacency Daylighting Matrix, PERIMETER_TOP_ZN_4,0
Enclosure/Window Adjacency Daylighting Matrix, PERIMETER_BOT_ZN_3,0
Enclosure/Window Adjacency Daylighting Matrix, PERIMETER_BOT_ZN_2,0
Enclosure/Window Adjacency Daylighting Matrix, PERIMETER_BOT_ZN_1,0
Enclosure/Window Adjacency Daylighting Matrix, PERIMETER_BOT_ZN_4,0
Enclosure/Window Adjacency Daylighting Matrix, PERIMETER_MID_ZN_3,0
Enclosure/Window Adjacency Daylighting Matrix, PERIMETER_MID_ZN_2,0
Enclosure/Window Adjacency Daylighting Matrix, PERIMETER_MID_ZN_1,0
Enclosure/Window Adjacency Daylighting Matrix, PERIMETER_MID_ZN_4,0
! <Water Heater Information>,Type,Name,Volume {m3},Maximum Capacity {W},Standard Rated Recovery Efficiency, Standard Rated Energy Factor
! <Heat Pump Water Heater Information>,Type,Name,Volume {m3},Maximum Capacity {W},Standard Rated Recovery Efficiency,Standard Rated Energy Factor,DX Coil Total Cooling Rate {W}
! <Water Heater Stratified Node Information>,Node Number,Height {m},Volume {m3},Maximum Capacity {W},Off-Cycle UA {W/K},On-Cycle UA {W/K},Number Of Inlets,Number Of Outlets
! <Surface Convection Parameters>, Surface Name, Outside Model Assignment, Outside Area [m2], Outside Perimeter [m], Outside Height [m], Inside Model Assignment, Inside Height [m], Inside Perimeter Envelope [m], Inside Hydraulic Diameter [m], Window Wall Ratio, Window Location, Near Radiant {Yes/No}, Has Active HVAC {Yes/No}
Surface Convection Parameters,CORE_BOT_ZN_5_WALL_SOUTH,0,0.00,0.00,0.00,0,2.74,0.00,30.31,-999.00,0,No,No
Surface Convection Parameters,CORE_BOT_ZN_5_WALL_EAST,0,0.00,0.00,0.00,0,2.74,0.00,30.31,-999.00,0,No,No
Surface Convection Parameters,CORE_BOT_ZN_5_WALL_NORTH,0,0.00,0.00,0.00,0,2.74,0.00,30.31,-999.00,0,No,No
Surface Convection Parameters,CORE_BOT_ZN_5_WALL_WEST,0,0.00,0.00,0.00,0,2.74,0.00,30.31,-999.00,0,No,No
Surface Convection Parameters,CORE_BOT_ZN_5_FLOOR,0,0.00,0.00,0.00,0,2.74,0.00,30.31,-999.00,0,No,No
Surface Convection Parameters,CORE_BOT_ZN_5_CEILING,0,0.00,0.00,0.00,0,2.74,0.00,30.31,-999.00,0,No,No
Surface Convection Parameters,CORE_BOTTOM_INTERNALMASS_1,0,0.00,0.00,0.00,0,2.74,0.00,30.31,-999.00,0,No,No
Surface Convection Parameters,PERIMETER_TOP_PLENUM_WALL_NORTH,0,593.30,143.75,11.89,0,1.22,166.37,39.93,0.00,0,No,No
Surface Convection Parameters,PERIMETER_TOP_PLENUM_WALL_EAST,0,395.53,143.75,11.89,0,1.22,166.37,39.93,0.00,0,No,No
Surface Convection Parameters,PERIMETER_TOP_PLENUM_WALL_SOUTH,0,593.30,123.60,11.89,0,1.22,166.37,39.93,0.00,0,No,No
Surface Convection Parameters,PERIMETER_TOP_PLENUM_WALL_WEST,0,395.53,90.32,11.89,0,1.22,166.37,39.93,0.00,0,No,No
Surface Convection Parameters,iz-PERIMETER_TOP_ZN_1_CEILING,0,0.00,0.00,0.00,0,1.22,166.37,39.93,0.00,0,No,No
Surface Convection Parameters,iz-PERIMETER_TOP_ZN_2_CEILING,0,0.00,0.00,0.00,0,1.22,166.37,39.93,0.00,0,No,No
Surface Convection Parameters,iz-PERIMETER_TOP_ZN_3_CEILING,0,0.00,0.00,0.00,0,1.22,166.37,39.93,0.00,0,No,No
Surface Convection Parameters,iz-PERIMETER_TOP_ZN_4_CEILING,0,0.00,0.00,0.00,0,1.22,166.37,39.93,0.00,0,No,No
Surface Convection Parameters,iz-CORE_TOP_ZN_5_CEILING,0,0.00,0.00,0.00,0,1.22,166.37,39.93,0.00,0,No,No
Surface Convection Parameters,BUILDING_ROOF,0,1660.73,166.37,0.00,0,1.22,166.37,39.93,0.00,0,No,No
Surface Convection Parameters,PERIMETER_MID_PLENUM_WALL_NORTH,0,593.30,143.75,11.89,0,1.22,166.37,39.93,0.00,0,No,No
Surface Convection Parameters,PERIMETER_MID_PLENUM_WALL_EAST,0,395.53,143.75,11.89,0,1.22,166.37,39.93,0.00,0,No,No
Surface Convection Parameters,PERIMETER_MID_PLENUM_WALL_SOUTH,0,593.30,123.60,11.89,0,1.22,166.37,39.93,0.00,0,No,No
Surface Convection Parameters,PERIMETER_MID_PLENUM_WALL_WEST,0,395.53,90.32,11.89,0,1.22,166.37,39.93,0.00,0,No,No
Surface Convection Parameters,iz-PERIMETER_MID_ZN_1_CEILING,0,0.00,0.00,0.00,0,1.22,166.37,39.93,0.00,0,No,No
Surface Convection Parameters,iz-PERIMETER_MID_ZN_2_CEILING,0,0.00,0.00,0.00,0,1.22,166.37,39.93,0.00,0,No,No
Surface Convection Parameters,iz-PERIMETER_MID_ZN_3_CEILING,0,0.00,0.00,0.00,0,1.22,166.37,39.93,0.00,0,No,No
Surface Convection Parameters,iz-PERIMETER_MID_ZN_4_CEILING,0,0.00,0.00,0.00,0,1.22,166.37,39.93,0.00,0,No,No
Surface Convection Parameters,iz-CORE_MID_ZN_5_CEILING,0,0.00,0.00,0.00,0,1.22,166.37,39.93,0.00,0,No,No
Surface Convection Parameters,iz-PERIMETER_TOP_ZN_1_FLOOR,0,0.00,0.00,0.00,0,1.22,166.37,39.93,0.00,0,No,No
Surface Convection Parameters,iz-PERIMETER_TOP_ZN_2_FLOOR,0,0.00,0.00,0.00,0,1.22,166.37,39.93,0.00,0,No,No
Surface Convection Parameters,iz-PERIMETER_TOP_ZN_3_FLOOR,0,0.00,0.00,0.00,0,1.22,166.37,39.93,0.00,0,No,No
Surface Convection Parameters,iz-PERIMETER_TOP_ZN_4_FLOOR,0,0.00,0.00,0.00,0,1.22,166.37,39.93,0.00,0,No,No
Surface Convection Parameters,iz-CORE_TOP_ZN_5_FLOOR,0,0.00,0.00,0.00,0,1.22,166.37,39.93,0.00,0,No,No
Surface Convection Parameters,PERIMETER_BOT_PLENUM_WALL_NORTH,0,593.30,143.75,11.89,0,1.22,166.37,39.93,0.00,0,No,No
Surface Convection Parameters,PERIMETER_BOT_PLENUM_WALL_EAST,0,395.53,143.75,11.89,0,1.22,166.37,39.93,0.00,0,No,No
Surface Convection Parameters,PERIMETER_BOT_PLENUM_WALL_SOUTH,0,593.30,123.60,11.89,0,1.22,166.37,39.93,0.00,0,No,No
Surface Convection Parameters,PERIMETER_BOT_PLENUM_WALL_WEST,0,395.53,90.32,11.89,0,1.22,166.37,39.93,0.00,0,No,No
Surface Convection Parameters,iz-PERIMETER_BOT_ZN_1_CEILING,0,0.00,0.00,0.00,0,1.22,166.37,39.93,0.00,0,No,No
Surface Convection Parameters,iz-PERIMETER_BOT_ZN_2_CEILING,0,0.00,0.00,0.00,0,1.22,166.37,39.93,0.00,0,No,No
Surface Convection Parameters,iz-PERIMETER_BOT_ZN_3_CEILING,0,0.00,0.00,0.00,0,1.22,166.37,39.93,0.00,0,No,No
Surface Convection Parameters,iz-PERIMETER_BOT_ZN_4_CEILING,0,0.00,0.00,0.00,0,1.22,166.37,39.93,0.00,0,No,No
Surface Convection Parameters,iz-CORE_BOT_ZN_5_CEILING,0,0.00,0.00,0.00,0,1.22,166.37,39.93,0.00,0,No,No
Surface Convection Parameters,iz-PERIMETER_MID_ZN_1_FLOOR,0,0.00,0.00,0.00,0,1.22,166.37,39.93,0.00,0,No,No
Surface Convection Parameters,iz-PERIMETER_MID_ZN_2_FLOOR,0,0.00,0.00,0.00,0,1.22,166.37,39.93,0.00,0,No,No
Surface Convection Parameters,iz-PERIMETER_MID_ZN_3_FLOOR,0,0.00,0.00,0.00,0,1.22,166.37,39.93,0.00,0,No,No
Surface Convection Parameters,iz-PERIMETER_MID_ZN_4_FLOOR,0,0.00,0.00,0.00,0,1.22,166.37,39.93,0.00,0,No,No
Surface Convection Parameters,iz-CORE_MID_ZN_5_FLOOR,0,0.00,0.00,0.00,0,1.22,166.37,39.93,0.00,0,No,No
Surface Convection Parameters,CORE_MID_ZN_5_WALL_NORTH,0,0.00,0.00,0.00,0,2.74,0.00,30.31,-999.00,0,No,No
Surface Convection Parameters,CORE_MID_ZN_5_WALL_EAST,0,0.00,0.00,0.00,0,2.74,0.00,30.31,-999.00,0,No,No
Surface Convection Parameters,CORE_MID_ZN_5_WALL_SOUTH,0,0.00,0.00,0.00,0,2.74,0.00,30.31,-999.00,0,No,No
Surface Convection Parameters,CORE_MID_ZN_5_WALL_WEST,0,0.00,0.00,0.00,0,2.74,0.00,30.31,-999.00,0,No,No
Surface Convection Parameters,CORE_MID_ZN_5_FLOOR,0,0.00,0.00,0.00,0,2.74,0.00,30.31,-999.00,0,No,No
Surface Convection Parameters,CORE_MID_ZN_5_CEILING,0,0.00,0.00,0.00,0,2.74,0.00,30.31,-999.00,0,No,No
Surface Convection Parameters,CORE_MID_INTERNALMASS_1,0,0.00,0.00,0.00,0,2.74,0.00,30.31,-999.00,0,No,No
Surface Convection Parameters,CORE_TOP_ZN_5_WALL_NORTH,0,0.00,0.00,0.00,0,2.74,0.00,30.31,-999.00,0,No,No
Surface Convection Parameters,CORE_TOP_ZN_5_WALL_EAST,0,0.00,0.00,0.00,0,2.74,0.00,30.31,-999.00,0,No,No
Surface Convection Parameters,CORE_TOP_ZN_5_WALL_SOUTH,0,0.00,0.00,0.00,0,2.74,0.00,30.31,-999.00,0,No,No
Surface Convection Parameters,CORE_TOP_ZN_5_WALL_WEST,0,0.00,0.00,0.00,0,2.74,0.00,30.31,-999.00,0,No,No
Surface Convection Parameters,CORE_TOP_ZN_5_FLOOR,0,0.00,0.00,0.00,0,2.74,0.00,30.31,-999.00,0,No,No
Surface Convection Parameters,CORE_TOP_ZN_5_CEILING,0,0.00,0.00,0.00,0,2.74,0.00,30.31,-999.00,0,No,No
Surface Convection Parameters,CORE_TOP_INTERNALMASS_1,0,0.00,0.00,0.00,0,2.74,0.00,30.31,-999.00,0,No,No
Surface Convection Parameters,PERIMETER_TOP_ZN_3_WALL_NORTH,0,593.30,143.75,11.89,0,2.74,49.91,7.61,0.48,3,No,No
Surface Convection Parameters,PERIMETER_TOP_ZN_3_WALL_NORTH_WINDOW,0,593.30,143.75,11.89,0,2.74,49.91,7.61,0.48,2,No,No
Surface Convection Parameters,PERIMETER_TOP_ZN_3_WALL_WEST,0,0.00,0.00,0.00,0,2.74,49.91,7.61,0.48,0,No,No
Surface Convection Parameters,iz-PERIMETER_TOP_ZN_2_WALL_NORTH,0,0.00,0.00,0.00,0,2.74,49.91,7.61,0.48,0,No,No
Surface Convection Parameters,iz-CORE_TOP_ZN_5_WALL_NORTH,0,0.00,0.00,0.00,0,2.74,49.91,7.61,0.48,0,No,No
Surface Convection Parameters,PERIMETER_TOP_ZN_3_FLOOR,0,0.00,0.00,0.00,0,2.74,49.91,7.61,0.48,0,No,No
Surface Convection Parameters,PERIMETER_TOP_ZN_3_CEILING,0,0.00,0.00,0.00,0,2.74,49.91,7.61,0.48,0,No,No
Surface Convection Parameters,PERIMETER_TOP_ZN_3_INTERNALMASS_1,0,0.00,0.00,0.00,0,2.74,49.91,7.61,0.48,0,No,No
Surface Convection Parameters,PERIMETER_TOP_ZN_2_WALL_EAST,0,395.53,143.75,11.89,0,2.74,33.27,6.94,0.48,3,No,No
Surface Convection Parameters,PERIMETER_TOP_ZN_2_WALL_EAST_WINDOW,0,395.53,143.75,11.89,0,2.74,33.27,6.94,0.48,2,No,No
Surface Convection Parameters,PERIMETER_TOP_ZN_2_WALL_NORTH,0,0.00,0.00,0.00,0,2.74,33.27,6.94,0.48,0,No,No
Surface Convection Parameters,iz-PERIMETER_TOP_ZN_1_WALL_EAST,0,0.00,0.00,0.00,0,2.74,33.27,6.94,0.48,0,No,No
Surface Convection Parameters,iz-CORE_TOP_ZN_5_WALL_EAST,0,0.00,0.00,0.00,0,2.74,33.27,6.94,0.48,0,No,No
Surface Convection Parameters,PERIMETER_TOP_ZN_2_FLOOR,0,0.00,0.00,0.00,0,2.74,33.27,6.94,0.48,0,No,No
Surface Convection Parameters,PERIMETER_TOP_ZN_2_CEILING,0,0.00,0.00,0.00,0,2.74,33.27,6.94,0.48,0,No,No
Surface Convection Parameters,PERIMETER_TOP_ZN_2_INTERNALMASS_1,0,0.00,0.00,0.00,0,2.74,33.27,6.94,0.48,0,No,No
Surface Convection Parameters,PERIMETER_TOP_ZN_1_WALL_SOUTH,0,593.30,123.60,11.89,0,2.74,49.91,7.61,0.48,3,No,No
Surface Convection Parameters,PERIMETER_TOP_ZN_1_WALL_SOUTH_WINDOW,0,593.30,123.60,11.89,0,2.74,49.91,7.61,0.48,2,No,No
Surface Convection Parameters,PERIMETER_TOP_ZN_1_WALL_EAST,0,0.00,0.00,0.00,0,2.74,49.91,7.61,0.48,0,No,No
Surface Convection Parameters,iz-PERIMETER_TOP_ZN_4_WALL_SOUTH,0,0.00,0.00,0.00,0,2.74,49.91,7.61,0.48,0,No,No
Surface Convection Parameters,iz-CORE_TOP_ZN_5_WALL_SOUTH,0,0.00,0.00,0.00,0,2.74,49.91,7.61,0.48,0,No,No
Surface Convection Parameters,PERIMETER_TOP_ZN_1_FLOOR,0,0.00,0.00,0.00,0,2.74,49.91,7.61,0.48,0,No,No
Surface Convection Parameters,PERIMETER_TOP_ZN_1_CEILING,0,0.00,0.00,0.00,0,2.74,49.91,7.61,0.48,0,No,No
Surface Convection Parameters,PERIMETER_TOP_ZN_1_INTERNALMASS_1,0,0.00,0.00,0.00,0,2.74,49.91,7.61,0.48,0,No,No
Surface Convection Parameters,PERIMETER_TOP_ZN_4_WALL_WEST,0,395.53,90.32,11.89,0,2.74,33.27,6.94,0.48,3,No,No
Surface Convection Parameters,PERIMETER_TOP_ZN_4_WALL_WEST_WINDOW,0,395.53,90.32,11.89,0,2.74,33.27,6.94,0.48,2,No,No
Surface Convection Parameters,PERIMETER_TOP_ZN_4_WALL_SOUTH,0,0.00,0.00,0.00,0,2.74,33.27,6.94,0.48,0,No,No
Surface Convection Parameters,iz-PERIMETER_TOP_ZN_3_WALL_WEST,0,0.00,0.00,0.00,0,2.74,33.27,6.94,0.48,0,No,No
Surface Convection Parameters,iz-CORE_TOP_ZN_5_WALL_WEST,0,0.00,0.00,0.00,0,2.74,33.27,6.94,0.48,0,No,No
Surface Convection Parameters,PERIMETER_TOP_ZN_4_FLOOR,0,0.00,0.00,0.00,0,2.74,33.27,6.94,0.48,0,No,No
Surface Convection Parameters,PERIMETER_TOP_ZN_4_CEILING,0,0.00,0.00,0.00,0,2.74,33.27,6.94,0.48,0,No,No
Surface Convection Parameters,PERIMETER_TOP_ZN_4_INTERNALMASS_1,0,0.00,0.00,0.00,0,2.74,33.27,6.94,0.48,0,No,No
Surface Convection Parameters,PERIMETER_BOT_ZN_3_WALL_NORTH,0,593.30,143.75,11.89,0,2.74,49.91,7.61,0.48,3,No,No
Surface Convection Parameters,PERIMETER_BOT_ZN_3_WALL_NORTH_WINDOW1,0,593.30,143.75,11.89,0,2.74,49.91,7.61,0.48,2,No,No
Surface Convection Parameters,PERIMETER_BOT_ZN_3_WALL_NORTH_WINDOW2,0,593.30,143.75,11.89,0,2.74,49.91,7.61,0.48,2,No,No
Surface Convection Parameters,PERIMETER_BOT_ZN_3_WALL_NORTH_WINDOW3,0,593.30,143.75,11.89,0,2.74,49.91,7.61,0.48,2,No,No
Surface Convection Parameters,PERIMETER_BOT_ZN_3_WALL_NORTH_DOOR1,0,593.30,143.75,11.89,0,2.74,49.91,7.61,0.48,0,No,No
Surface Convection Parameters,PERIMETER_BOT_ZN_3_WALL_NORTH_DOOR2,0,593.30,143.75,11.89,0,2.74,49.91,7.61,0.48,0,No,No
Surface Convection Parameters,PERIMETER_BOT_ZN_3_WALL_WEST,0,0.00,0.00,0.00,0,2.74,49.91,7.61,0.48,0,No,No
Surface Convection Parameters,iz-PERIMETER_BOT_ZN_2_WALL_NORTH,0,0.00,0.00,0.00,0,2.74,49.91,7.61,0.48,0,No,No
Surface Convection Parameters,iz-CORE_BOT_ZN_5_WALL_NORTH,0,0.00,0.00,0.00,0,2.74,49.91,7.61,0.48,0,No,No
Surface Convection Parameters,PERIMETER_BOT_ZN_3_FLOOR,0,0.00,0.00,0.00,0,2.74,49.91,7.61,0.48,0,No,No
Surface Convection Parameters,PERIMETER_BOT_ZN_3_CEILING,0,0.00,0.00,0.00,0,2.74,49.91,7.61,0.48,0,No,No
Surface Convection Parameters,PERIMETER_BOT_ZN_3_INTERNALMASS_1,0,0.00,0.00,0.00,0,2.74,49.91,7.61,0.48,0,No,No
Surface Convection Parameters,PERIMETER_BOT_ZN_2_WALL_EAST,0,395.53,143.75,11.89,0,2.74,33.27,6.94,0.48,3,No,No
Surface Convection Parameters,PERIMETER_BOT_ZN_2_WALL_EAST_WINDOW1,0,395.53,143.75,11.89,0,2.74,33.27,6.94,0.48,2,No,No
Surface Convection Parameters,PERIMETER_BOT_ZN_2_WALL_EAST_WINDOW2,0,395.53,143.75,11.89,0,2.74,33.27,6.94,0.48,2,No,No
Surface Convection Parameters,PERIMETER_BOT_ZN_2_WALL_EAST_DOOR,0,395.53,143.75,11.89,0,2.74,33.27,6.94,0.48,0,No,No
Surface Convection Parameters,PERIMETER_BOT_ZN_2_WALL_NORTH,0,0.00,0.00,0.00,0,2.74,33.27,6.94,0.48,0,No,No
Surface Convection Parameters,iz-PERIMETER_BOT_ZN_1_WALL_EAST,0,0.00,0.00,0.00,0,2.74,33.27,6.94,0.48,0,No,No
Surface Convection Parameters,iz-CORE_BOT_ZN_5_WALL_EAST,0,0.00,0.00,0.00,0,2.74,33.27,6.94,0.48,0,No,No
Surface Convection Parameters,PERIMETER_BOT_ZN_2_FLOOR,0,0.00,0.00,0.00,0,2.74,33.27,6.94,0.48,0,No,No
Surface Convection Parameters,PERIMETER_BOT_ZN_2_CEILING,0,0.00,0.00,0.00,0,2.74,33.27,6.94,0.48,0,No,No
Surface Convection Parameters,PERIMETER_BOT_ZN_2_INTERNALMASS_1,0,0.00,0.00,0.00,0,2.74,33.27,6.94,0.48,0,No,No
Surface Convection Parameters,PERIMETER_BOT_ZN_1_WALL_SOUTH,0,593.30,123.60,11.89,0,2.74,49.91,7.61,0.48,3,No,No
Surface Convection Parameters,PERIMETER_BOT_ZN_1_WALL_SOUTH_WINDOW1,0,593.30,123.60,11.89,0,2.74,49.91,7.61,0.48,2,No,No
Surface Convection Parameters,PERIMETER_BOT_ZN_1_WALL_SOUTH_WINDOW2,0,593.30,123.60,11.89,0,2.74,49.91,7.61,0.48,2,No,No
Surface Convection Parameters,PERIMETER_BOT_ZN_1_WALL_SOUTH_WINDOW3,0,593.30,123.60,11.89,0,2.74,49.91,7.61,0.48,2,No,No
Surface Convection Parameters,PERIMETER_BOT_ZN_1_WALL_SOUTH_DOOR1,0,593.30,123.60,11.89,0,2.74,49.91,7.61,0.48,0,No,No
Surface Convection Parameters,PERIMETER_BOT_ZN_1_WALL_SOUTH_DOOR2,0,593.30,123.60,11.89,0,2.74,49.91,7.61,0.48,0,No,No
Surface Convection Parameters,PERIMETER_BOT_ZN_1_WALL_EAST,0,0.00,0.00,0.00,0,2.74,49.91,7.61,0.48,0,No,No
Surface Convection Parameters,iz-PERIMETER_BOT_ZN_4_WALL_SOUTH,0,0.00,0.00,0.00,0,2.74,49.91,7.61,0.48,0,No,No
Surface Convection Parameters,iz-CORE_BOT_ZN_5_WALL_SOUTH,0,0.00,0.00,0.00,0,2.74,49.91,7.61,0.48,0,No,No
Surface Convection Parameters,PERIMETER_BOT_ZN_1_FLOOR,0,0.00,0.00,0.00,0,2.74,49.91,7.61,0.48,0,No,No
Surface Convection Parameters,PERIMETER_BOT_ZN_1_CEILING,0,0.00,0.00,0.00,0,2.74,49.91,7.61,0.48,0,No,No
Surface Convection Parameters,PERIMETER_BOT_ZN_1_INTERNALMASS_1,0,0.00,0.00,0.00,0,2.74,49.91,7.61,0.48,0,No,No
Surface Convection Parameters,PERIMETER_BOT_ZN_4_WALL_WEST,0,395.53,90.32,11.89,0,2.74,33.27,6.94,0.48,3,No,No
Surface Convection Parameters,PERIMETER_BOT_ZN_4_WALL_WEST_WINDOW1,0,395.53,90.32,11.89,0,2.74,33.27,6.94,0.48,2,No,No
Surface Convection Parameters,PERIMETER_BOT_ZN_4_WALL_WEST_WINDOW2,0,395.53,90.32,11.89,0,2.74,33.27,6.94,0.48,2,No,No
Surface Convection Parameters,PERIMETER_BOT_ZN_4_WALL_WEST_DOOR,0,395.53,90.32,11.89,0,2.74,33.27,6.94,0.48,0,No,No
Surface Convection Parameters,PERIMETER_BOT_ZN_4_WALL_SOUTH,0,0.00,0.00,0.00,0,2.74,33.27,6.94,0.48,0,No,No
Surface Convection Parameters,iz-PERIMETER_BOT_ZN_3_WALL_WEST,0,0.00,0.00,0.00,0,2.74,33.27,6.94,0.48,0,No,No
Surface Convection Parameters,iz-CORE_BOT_ZN_5_WALL_WEST,0,0.00,0.00,0.00,0,2.74,33.27,6.94,0.48,0,No,No
Surface Convection Parameters,PERIMETER_BOT_ZN_4_FLOOR,0,0.00,0.00,0.00,0,2.74,33.27,6.94,0.48,0,No,No
Surface Convection Parameters,PERIMETER_BOT_ZN_4_CEILING,0,0.00,0.00,0.00,0,2.74,33.27,6.94,0.48,0,No,No
Surface Convection Parameters,PERIMETER_BOT_ZN_4_INTERNALMASS_1,0,0.00,0.00,0.00,0,2.74,33.27,6.94,0.48,0,No,No
Surface Convection Parameters,PERIMETER_MID_ZN_3_WALL_NORTH,0,593.30,143.75,11.89,0,2.74,49.91,7.61,0.48,3,No,No
Surface Convection Parameters,PERIMETER_MID_ZN_3_WALL_NORTH_WINDOW,0,593.30,143.75,11.89,0,2.74,49.91,7.61,0.48,2,No,No
Surface Convection Parameters,PERIMETER_MID_ZN_3_WALL_WEST,0,0.00,0.00,0.00,0,2.74,49.91,7.61,0.48,0,No,No
Surface Convection Parameters,iz-PERIMETER_MID_ZN_2_WALL_NORTH,0,0.00,0.00,0.00,0,2.74,49.91,7.61,0.48,0,No,No
Surface Convection Parameters,iz-CORE_MID_ZN_5_WALL_NORTH,0,0.00,0.00,0.00,0,2.74,49.91,7.61,0.48,0,No,No
Surface Convection Parameters,PERIMETER_MID_ZN_3_FLOOR,0,0.00,0.00,0.00,0,2.74,49.91,7.61,0.48,0,No,No
Surface Convection Parameters,PERIMETER_MID_ZN_3_CEILING,0,0.00,0.00,0.00,0,2.74,49.91,7.61,0.48,0,No,No
Surface Convection Parameters,PERIMETER_MID_ZN_3_INTERNALMASS_1,0,0.00,0.00,0.00,0,2.74,49.91,7.61,0.48,0,No,No
Surface Convection Parameters,PERIMETER_MID_ZN_2_WALL_EAST,0,395.53,143.75,11.89,0,2.74,33.27,6.94,0.48,3,No,No
Surface Convection Parameters,PERIMETER_MID_ZN_2_WALL_EAST_WINDOW,0,395.53,143.75,11.89,0,2.74,33.27,6.94,0.48,2,No,No
Surface Convection Parameters,PERIMETER_MID_ZN_2_WALL_NORTH,0,0.00,0.00,0.00,0,2.74,33.27,6.94,0.48,0,No,No
Surface Convection Parameters,iz-PERIMETER_MID_ZN_1_WALL_EAST,0,0.00,0.00,0.00,0,2.74,33.27,6.94,0.48,0,No,No
Surface Convection Parameters,iz-CORE_MID_ZN_5_WALL_EAST,0,0.00,0.00,0.00,0,2.74,33.27,6.94,0.48,0,No,No
Surface Convection Parameters,PERIMETER_MID_ZN_2_FLOOR,0,0.00,0.00,0.00,0,2.74,33.27,6.94,0.48,0,No,No
Surface Convection Parameters,PERIMETER_MID_ZN_2_CEILING,0,0.00,0.00,0.00,0,2.74,33.27,6.94,0.48,0,No,No
Surface Convection Parameters,PERIMETER_MID_ZN_2_INTERNALMASS_1,0,0.00,0.00,0.00,0,2.74,33.27,6.94,0.48,0,No,No
Surface Convection Parameters,PERIMETER_MID_ZN_1_WALL_SOUTH,0,593.30,123.60,11.89,0,2.74,49.91,7.61,0.48,3,No,No
Surface Convection Parameters,PERIMETER_MID_ZN_1_WALL_SOUTH_WINDOW,0,593.30,123.60,11.89,0,2.74,49.91,7.61,0.48,2,No,No
Surface Convection Parameters,PERIMETER_MID_ZN_1_WALL_EAST,0,0.00,0.00,0.00,0,2.74,49.91,7.61,0.48,0,No,No
Surface Convection Parameters,iz-PERIMETER_MID_ZN_4_WALL_SOUTH,0,0.00,0.00,0.00,0,2.74,49.91,7.61,0.48,0,No,No
Surface Convection Parameters,iz-CORE_MID_ZN_5_WALL_SOUTH,0,0.00,0.00,0.00,0,2.74,49.91,7.61,0.48,0,No,No
Surface Convection Parameters,PERIMETER_MID_ZN_1_FLOOR,0,0.00,0.00,0.00,0,2.74,49.91,7.61,0.48,0,No,No
Surface Convection Parameters,PERIMETER_MID_ZN_1_CEILING,0,0.00,0.00,0.00,0,2.74,49.91,7.61,0.48,0,No,No
Surface Convection Parameters,PERIMETER_MID_ZN_1_INTERNALMASS_1,0,0.00,0.00,0.00,0,2.74,49.91,7.61,0.48,0,No,No
Surface Convection Parameters,PERIMETER_MID_ZN_4_WALL_WEST,0,395.53,90.32,11.89,0,2.74,33.27,6.94,0.48,3,No,No
Surface Convection Parameters,PERIMETER_MID_ZN_4_WALL_WEST_WINDOW,0,395.53,90.32,11.89,0,2.74,33.27,6.94,0.48,2,No,No
Surface Convection Parameters,PERIMETER_MID_ZN_4_WALL_SOUTH,0,0.00,0.00,0.00,0,2.74,33.27,6.94,0.48,0,No,No
Surface Convection Parameters,iz-PERIMETER_MID_ZN_3_WALL_WEST,0,0.00,0.00,0.00,0,2.74,33.27,6.94,0.48,0,No,No
Surface Convection Parameters,iz-CORE_MID_ZN_5_WALL_WEST,0,0.00,0.00,0.00,0,2.74,33.27,6.94,0.48,0,No,No
Surface Convection Parameters,PERIMETER_MID_ZN_4_FLOOR,0,0.00,0.00,0.00,0,2.74,33.27,6.94,0.48,0,No,No
Surface Convection Parameters,PERIMETER_MID_ZN_4_CEILING,0,0.00,0.00,0.00,0,2.74,33.27,6.94,0.48,0,No,No
Surface Convection Parameters,PERIMETER_MID_ZN_4_INTERNALMASS_1,0,0.00,0.00,0.00,0,2.74,33.27,6.94,0.48,0,No,No
! <ZoneInfiltration Airflow Stats Nominal>,Name,Schedule Name,Zone Name, Zone Floor Area {m2}, # Zone Occupants,Design Volume Flow Rate {m3/s},Volume Flow Rate/Floor Area {m3/s-m2},Volume Flow Rate/Exterior Surface Area {m3/s-m2},ACH - Air Changes per Hour,Equation A - Constant Term Coefficient {},Equation B - Temperature Term Coefficient {1/C},Equation C - Velocity Term Coefficient {s/m}, Equation D - Velocity Squared Term Coefficient {s2/m2}
 ZoneInfiltration Airflow Stats Nominal, PERIMETER_TOP_ZN_3_INFILTRATION,INFIL_SCH_PNNL,PERIMETER_TOP_ZN_3,207.34,11.2,7.798E-002,3.761E-004,5.696E-004,0.494,0.000,0.000,0.224,0.000
 ZoneInfiltration Airflow Stats Nominal, PERIMETER_TOP_ZN_2_INFILTRATION,INFIL_SCH_PNNL,PERIMETER_TOP_ZN_2,131.26,7.1,5.199E-002,3.961E-004,5.696E-004,0.520,0.000,0.000,0.224,0.000
 ZoneInfiltration Airflow Stats Nominal, PERIMETER_TOP_ZN_1_INFILTRATION,INFIL_SCH_PNNL,PERIMETER_TOP_ZN_1,207.34,11.2,7.798E-002,3.761E-004,5.696E-004,0.494,0.000,0.000,0.224,0.000
 ZoneInfiltration Airflow Stats Nominal, PERIMETER_TOP_ZN_4_INFILTRATION,INFIL_SCH_PNNL,PERIMETER_TOP_ZN_4,131.25,7.1,5.199E-002,3.961E-004,5.696E-004,0.520,0.000,0.000,0.224,0.000
 ZoneInfiltration Airflow Stats Nominal, PERIMETER_BOT_ZN_3_INFILTRATION,INFIL_SCH_PNNL,PERIMETER_BOT_ZN_3,207.34,11.2,7.798E-002,3.761E-004,5.538E-004,0.494,0.000,0.000,0.224,0.000
 ZoneInfiltration Airflow Stats Nominal, PERIMETER_BOT_ZN_2_INFILTRATION,INFIL_SCH_PNNL,PERIMETER_BOT_ZN_2,131.26,7.1,5.199E-002,3.961E-004,5.577E-004,0.520,0.000,0.000,0.224,0.000
 ZoneInfiltration Airflow Stats Nominal, PERIMETER_BOT_ZN_1_INFILTRATION,INFIL_SCH_PNNL,PERIMETER_BOT_ZN_1,207.34,11.2,7.798E-002,3.761E-004,5.538E-004,0.494,0.000,0.000,0.224,0.000
 ZoneInfiltration Airflow Stats Nominal, PERIMETER_BOT_ZN_1_DOOR_INFILTRATION,INFIL_DOOR_OPENING_SCH,PERIMETER_BOT_ZN_1,207.34,11.2,0.679,3.273E-003,4.819E-003,4.296,1.000,0.000,0.000,0.000
 ZoneInfiltration Airflow Stats Nominal, PERIMETER_BOT_ZN_4_INFILTRATION,INFIL_SCH_PNNL,PERIMETER_BOT_ZN_4,131.25,7.1,5.199E-002,3.961E-004,5.577E-004,0.520,0.000,0.000,0.224,0.000
 ZoneInfiltration Airflow Stats Nominal, PERIMETER_MID_ZN_3_INFILTRATION,INFIL_SCH_PNNL,PERIMETER_MID_ZN_3,207.34,11.2,7.798E-002,3.761E-004,5.696E-004,0.494,0.000,0.000,0.224,0.000
 ZoneInfiltration Airflow Stats Nominal, PERIMETER_MID_ZN_2_INFILTRATION,INFIL_SCH_PNNL,PERIMETER_MID_ZN_2,131.26,7.1,5.199E-002,3.961E-004,5.696E-004,0.520,0.000,0.000,0.224,0.000
 ZoneInfiltration Airflow Stats Nominal, PERIMETER_MID_ZN_1_INFILTRATION,INFIL_SCH_PNNL,PERIMETER_MID_ZN_1,207.34,11.2,7.798E-002,3.761E-004,5.696E-004,0.494,0.000,0.000,0.224,0.000
 ZoneInfiltration Airflow Stats Nominal, PERIMETER_MID_ZN_4_INFILTRATION,INFIL_SCH_PNNL,PERIMETER_MID_ZN_4,131.25,7.1,5.199E-002,3.961E-004,5.696E-004,0.520,0.000,0.000,0.224,0.000
 ZoneInfiltration Airflow Stats Nominal, FIRSTFLOOR_PLENUM_INFILTRATION,INFIL_SCH_PNNL,FIRSTFLOOR_PLENUM,1660.73,0.0,0.116,6.957E-005,5.696E-004,0.205,0.000,0.000,0.224,0.000
 ZoneInfiltration Airflow Stats Nominal, MIDFLOOR_PLENUM_INFILTRATION,INFIL_SCH_PNNL,MIDFLOOR_PLENUM,1660.73,0.0,0.116,6.957E-005,5.696E-004,0.205,0.000,0.000,0.224,0.000
 ZoneInfiltration Airflow Stats Nominal, TOPFLOOR_PLENUM_INFILTRATION,INFIL_SCH_PNNL,TOPFLOOR_PLENUM,1660.73,0.0,0.116,6.957E-005,6.199E-005,0.205,0.000,0.000,0.224,0.000
! <AirFlow Model>, Simple
 AirFlow Model, Simple
! <RoomAir Model>, Zone Name, Mixing/Mundt/UCSDDV/UCSDCV/UCSDUFI/UCSDUFE/User Defined
RoomAir Model,CORE_BOTTOM,Mixing/Well-Stirred
RoomAir Model,TOPFLOOR_PLENUM,Mixing/Well-Stirred
RoomAir Model,MIDFLOOR_PLENUM,Mixing/Well-Stirred
RoomAir Model,FIRSTFLOOR_PLENUM,Mixing/Well-Stirred
RoomAir Model,CORE_MID,Mixing/Well-Stirred
RoomAir Model,CORE_TOP,Mixing/Well-Stirred
RoomAir Model,PERIMETER_TOP_ZN_3,Mixing/Well-Stirred
RoomAir Model,PERIMETER_TOP_ZN_2,Mixing/Well-Stirred
RoomAir Model,PERIMETER_TOP_ZN_1,Mixing/Well-Stirred
RoomAir Model,PERIMETER_TOP_ZN_4,Mixing/Well-Stirred
RoomAir Model,PERIMETER_BOT_ZN_3,Mixing/Well-Stirred
RoomAir Model,PERIMETER_BOT_ZN_2,Mixing/Well-Stirred
RoomAir Model,PERIMETER_BOT_ZN_1,Mixing/Well-Stirred
RoomAir Model,PERIMETER_BOT_ZN_4,Mixing/Well-Stirred
RoomAir Model,PERIMETER_MID_ZN_3,Mixing/Well-Stirred
RoomAir Model,PERIMETER_MID_ZN_2,Mixing/Well-Stirred
RoomAir Model,PERIMETER_MID_ZN_1,Mixing/Well-Stirred
RoomAir Model,PERIMETER_MID_ZN_4,Mixing/Well-Stirred
! <AirflowNetwork Model:Control>, No Multizone or Distribution/Multizone with Distribution/Multizone without Distribution/Multizone with Distribution only during Fan Operation
AirflowNetwork Model:Control,NoMultizoneOrDistribution
! <Zone Volume Capacitance Multiplier>, Sensible Heat Capacity Multiplier, Moisture Capacity Multiplier, Carbon Dioxide Capacity Multiplier, Generic Contaminant Capacity Multiplier
Zone Volume Capacitance Multiplier,   1.000 ,   1.000,   1.000,   1.000
! <Load Timesteps in Zone Design Calculation Averaging Window>, Value
 Load Timesteps in Zone Design Calculation Averaging Window,    6
! <Heating Sizing Factor Information>, Sizing Factor ID, Value
 Heating Sizing Factor Information, Global,   1.0000    
! <Cooling Sizing Factor Information>, Sizing Factor ID, Value
 Cooling Sizing Factor Information, Global,   1.0000    
! <Sky Daylight Factors>, Sky Type, MonthAndDay, Daylighting Control Name, Enclosure Name, Window Name, Reference Point, Daylight Factor
 Sky Daylight Factors,Clear Sky,01/21,PERIMETER_BOT_ZN_1_DAYLCTRL,PERIMETER_BOT_ZN_1,PERIMETER_BOT_ZN_1_WALL_SOUTH_WINDOW1,PERIMETER_BOT_ZN_1_DAYLREFPT1,1.2394E-002
 Sky Daylight Factors,Clear Sky,01/21,PERIMETER_BOT_ZN_1_DAYLCTRL,PERIMETER_BOT_ZN_1,PERIMETER_BOT_ZN_1_WALL_SOUTH_WINDOW1,PERIMETER_BOT_ZN_1_DAYLREFPT2,1.2460E-002
 Sky Daylight Factors,Clear Turbid Sky,01/21,PERIMETER_BOT_ZN_1_DAYLCTRL,PERIMETER_BOT_ZN_1,PERIMETER_BOT_ZN_1_WALL_SOUTH_WINDOW1,PERIMETER_BOT_ZN_1_DAYLREFPT1,1.3767E-002
 Sky Daylight Factors,Clear Turbid Sky,01/21,PERIMETER_BOT_ZN_1_DAYLCTRL,PERIMETER_BOT_ZN_1,PERIMETER_BOT_ZN_1_WALL_SOUTH_WINDOW1,PERIMETER_BOT_ZN_1_DAYLREFPT2,1.3823E-002
 Sky Daylight Factors,Intermediate Sky,01/21,PERIMETER_BOT_ZN_1_DAYLCTRL,PERIMETER_BOT_ZN_1,PERIMETER_BOT_ZN_1_WALL_SOUTH_WINDOW1,PERIMETER_BOT_ZN_1_DAYLREFPT1,8.2411E-003
 Sky Daylight Factors,Intermediate Sky,01/21,PERIMETER_BOT_ZN_1_DAYLCTRL,PERIMETER_BOT_ZN_1,PERIMETER_BOT_ZN_1_WALL_SOUTH_WINDOW1,PERIMETER_BOT_ZN_1_DAYLREFPT2,8.2870E-003
 Sky Daylight Factors,Overcast Sky,01/21,PERIMETER_BOT_ZN_1_DAYLCTRL,PERIMETER_BOT_ZN_1,PERIMETER_BOT_ZN_1_WALL_SOUTH_WINDOW1,PERIMETER_BOT_ZN_1_DAYLREFPT1,4.3624E-003
 Sky Daylight Factors,Overcast Sky,01/21,PERIMETER_BOT_ZN_1_DAYLCTRL,PERIMETER_BOT_ZN_1,PERIMETER_BOT_ZN_1_WALL_SOUTH_WINDOW1,PERIMETER_BOT_ZN_1_DAYLREFPT2,4.3867E-003
 Sky Daylight Factors,Clear Sky,01/21,PERIMETER_BOT_ZN_1_DAYLCTRL,PERIMETER_BOT_ZN_1,PERIMETER_BOT_ZN_1_WALL_SOUTH_WINDOW2,PERIMETER_BOT_ZN_1_DAYLREFPT1,0.1708
 Sky Daylight Factors,Clear Sky,01/21,PERIMETER_BOT_ZN_1_DAYLCTRL,PERIMETER_BOT_ZN_1,PERIMETER_BOT_ZN_1_WALL_SOUTH_WINDOW2,PERIMETER_BOT_ZN_1_DAYLREFPT2,9.2019E-002
 Sky Daylight Factors,Clear Turbid Sky,01/21,PERIMETER_BOT_ZN_1_DAYLCTRL,PERIMETER_BOT_ZN_1,PERIMETER_BOT_ZN_1_WALL_SOUTH_WINDOW2,PERIMETER_BOT_ZN_1_DAYLREFPT1,0.1948
 Sky Daylight Factors,Clear Turbid Sky,01/21,PERIMETER_BOT_ZN_1_DAYLCTRL,PERIMETER_BOT_ZN_1,PERIMETER_BOT_ZN_1_WALL_SOUTH_WINDOW2,PERIMETER_BOT_ZN_1_DAYLREFPT2,0.1049
 Sky Daylight Factors,Intermediate Sky,01/21,PERIMETER_BOT_ZN_1_DAYLCTRL,PERIMETER_BOT_ZN_1,PERIMETER_BOT_ZN_1_WALL_SOUTH_WINDOW2,PERIMETER_BOT_ZN_1_DAYLREFPT1,0.1170
 Sky Daylight Factors,Intermediate Sky,01/21,PERIMETER_BOT_ZN_1_DAYLCTRL,PERIMETER_BOT_ZN_1,PERIMETER_BOT_ZN_1_WALL_SOUTH_WINDOW2,PERIMETER_BOT_ZN_1_DAYLREFPT2,5.0052E-002
 Sky Daylight Factors,Overcast Sky,01/21,PERIMETER_BOT_ZN_1_DAYLCTRL,PERIMETER_BOT_ZN_1,PERIMETER_BOT_ZN_1_WALL_SOUTH_WINDOW2,PERIMETER_BOT_ZN_1_DAYLREFPT1,4.8200E-002
 Sky Daylight Factors,Overcast Sky,01/21,PERIMETER_BOT_ZN_1_DAYLCTRL,PERIMETER_BOT_ZN_1,PERIMETER_BOT_ZN_1_WALL_SOUTH_WINDOW2,PERIMETER_BOT_ZN_1_DAYLREFPT2,1.8082E-002
 Sky Daylight Factors,Clear Sky,01/21,PERIMETER_BOT_ZN_1_DAYLCTRL,PERIMETER_BOT_ZN_1,PERIMETER_BOT_ZN_1_WALL_SOUTH_WINDOW3,PERIMETER_BOT_ZN_1_DAYLREFPT1,1.2396E-002
 Sky Daylight Factors,Clear Sky,01/21,PERIMETER_BOT_ZN_1_DAYLCTRL,PERIMETER_BOT_ZN_1,PERIMETER_BOT_ZN_1_WALL_SOUTH_WINDOW3,PERIMETER_BOT_ZN_1_DAYLREFPT2,1.2471E-002
 Sky Daylight Factors,Clear Turbid Sky,01/21,PERIMETER_BOT_ZN_1_DAYLCTRL,PERIMETER_BOT_ZN_1,PERIMETER_BOT_ZN_1_WALL_SOUTH_WINDOW3,PERIMETER_BOT_ZN_1_DAYLREFPT1,1.3768E-002
 Sky Daylight Factors,Clear Turbid Sky,01/21,PERIMETER_BOT_ZN_1_DAYLCTRL,PERIMETER_BOT_ZN_1,PERIMETER_BOT_ZN_1_WALL_SOUTH_WINDOW3,PERIMETER_BOT_ZN_1_DAYLREFPT2,1.3836E-002
 Sky Daylight Factors,Intermediate Sky,01/21,PERIMETER_BOT_ZN_1_DAYLCTRL,PERIMETER_BOT_ZN_1,PERIMETER_BOT_ZN_1_WALL_SOUTH_WINDOW3,PERIMETER_BOT_ZN_1_DAYLREFPT1,8.2426E-003
 Sky Daylight Factors,Intermediate Sky,01/21,PERIMETER_BOT_ZN_1_DAYLCTRL,PERIMETER_BOT_ZN_1,PERIMETER_BOT_ZN_1_WALL_SOUTH_WINDOW3,PERIMETER_BOT_ZN_1_DAYLREFPT2,8.2948E-003
 Sky Daylight Factors,Overcast Sky,01/21,PERIMETER_BOT_ZN_1_DAYLCTRL,PERIMETER_BOT_ZN_1,PERIMETER_BOT_ZN_1_WALL_SOUTH_WINDOW3,PERIMETER_BOT_ZN_1_DAYLREFPT1,4.3621E-003
 Sky Daylight Factors,Overcast Sky,01/21,PERIMETER_BOT_ZN_1_DAYLCTRL,PERIMETER_BOT_ZN_1,PERIMETER_BOT_ZN_1_WALL_SOUTH_WINDOW3,PERIMETER_BOT_ZN_1_DAYLREFPT2,4.3864E-003
 Sky Daylight Factors,Clear Sky,01/21,PERIMETER_BOT_ZN_2_DAYLCTRL,PERIMETER_BOT_ZN_2,PERIMETER_BOT_ZN_2_WALL_EAST_WINDOW1,PERIMETER_BOT_ZN_2_DAYLREFPT1,7.7422E-002
 Sky Daylight Factors,Clear Sky,01/21,PERIMETER_BOT_ZN_2_DAYLCTRL,PERIMETER_BOT_ZN_2,PERIMETER_BOT_ZN_2_WALL_EAST_WINDOW1,PERIMETER_BOT_ZN_2_DAYLREFPT2,4.4954E-002
 Sky Daylight Factors,Clear Turbid Sky,01/21,PERIMETER_BOT_ZN_2_DAYLCTRL,PERIMETER_BOT_ZN_2,PERIMETER_BOT_ZN_2_WALL_EAST_WINDOW1,PERIMETER_BOT_ZN_2_DAYLREFPT1,7.3751E-002
 Sky Daylight Factors,Clear Turbid Sky,01/21,PERIMETER_BOT_ZN_2_DAYLCTRL,PERIMETER_BOT_ZN_2,PERIMETER_BOT_ZN_2_WALL_EAST_WINDOW1,PERIMETER_BOT_ZN_2_DAYLREFPT2,4.2027E-002
 Sky Daylight Factors,Intermediate Sky,01/21,PERIMETER_BOT_ZN_2_DAYLCTRL,PERIMETER_BOT_ZN_2,PERIMETER_BOT_ZN_2_WALL_EAST_WINDOW1,PERIMETER_BOT_ZN_2_DAYLREFPT1,7.4302E-002
 Sky Daylight Factors,Intermediate Sky,01/21,PERIMETER_BOT_ZN_2_DAYLCTRL,PERIMETER_BOT_ZN_2,PERIMETER_BOT_ZN_2_WALL_EAST_WINDOW1,PERIMETER_BOT_ZN_2_DAYLREFPT2,3.7446E-002
 Sky Daylight Factors,Overcast Sky,01/21,PERIMETER_BOT_ZN_2_DAYLCTRL,PERIMETER_BOT_ZN_2,PERIMETER_BOT_ZN_2_WALL_EAST_WINDOW1,PERIMETER_BOT_ZN_2_DAYLREFPT1,5.6593E-002
 Sky Daylight Factors,Overcast Sky,01/21,PERIMETER_BOT_ZN_2_DAYLCTRL,PERIMETER_BOT_ZN_2,PERIMETER_BOT_ZN_2_WALL_EAST_WINDOW1,PERIMETER_BOT_ZN_2_DAYLREFPT2,2.6671E-002
 Sky Daylight Factors,Clear Sky,01/21,PERIMETER_BOT_ZN_2_DAYLCTRL,PERIMETER_BOT_ZN_2,PERIMETER_BOT_ZN_2_WALL_EAST_WINDOW2,PERIMETER_BOT_ZN_2_DAYLREFPT1,6.9282E-004
 Sky Daylight Factors,Clear Sky,01/21,PERIMETER_BOT_ZN_2_DAYLCTRL,PERIMETER_BOT_ZN_2,PERIMETER_BOT_ZN_2_WALL_EAST_WINDOW2,PERIMETER_BOT_ZN_2_DAYLREFPT2,6.9549E-004
 Sky Daylight Factors,Clear Turbid Sky,01/21,PERIMETER_BOT_ZN_2_DAYLCTRL,PERIMETER_BOT_ZN_2,PERIMETER_BOT_ZN_2_WALL_EAST_WINDOW2,PERIMETER_BOT_ZN_2_DAYLREFPT1,6.6202E-004
 Sky Daylight Factors,Clear Turbid Sky,01/21,PERIMETER_BOT_ZN_2_DAYLCTRL,PERIMETER_BOT_ZN_2,PERIMETER_BOT_ZN_2_WALL_EAST_WINDOW2,PERIMETER_BOT_ZN_2_DAYLREFPT2,6.6395E-004
[...]
Zone Surfaces,PERIMETER_BOT_ZN_1,12
HeatTransfer Surface,PERIMETER_BOT_ZN_1_WALL_SOUTH,Wall,,CTF - ConductionTransferFunction,NONRES_EXT_WALL_GRD,0.496,0.462,,67.75,136.92,67.75,180.00,90.00,49.91,2.74,0.00,ExternalEnvironment,ASHRAETARP,ASHRAETARP,SunExposed,WindExposed,0.50,0.50,0.50,0.50,4
HeatTransfer Surface,PERIMETER_BOT_ZN_1_WALL_SOUTH_WINDOW1,Window,PERIMETER_BOT_ZN_1_WALL_SOUTH,Window5 Detailed Fenestration,WINDOW_U_0.342_SHGC_SOUTH_0.379,N/A,1.943,No,21.75,21.75,21.75,180.00,90.00,15.82,1.37,0.00,ExternalEnvironment,ASHRAETARP,ASHRAETARP,SunExposed,WindExposed,0.50,0.50,0.50,0.50,4
HeatTransfer Surface,PERIMETER_BOT_ZN_1_WALL_SOUTH_WINDOW2,Window,PERIMETER_BOT_ZN_1_WALL_SOUTH,Window5 Detailed Fenestration,WINDOW_U_0.342_SHGC_SOUTH_0.379,N/A,1.943,No,21.75,21.75,21.75,180.00,90.00,15.82,1.37,0.00,ExternalEnvironment,ASHRAETARP,ASHRAETARP,SunExposed,WindExposed,0.50,0.50,0.50,0.50,4
HeatTransfer Surface,PERIMETER_BOT_ZN_1_WALL_SOUTH_WINDOW3,Window,PERIMETER_BOT_ZN_1_WALL_SOUTH,Window5 Detailed Fenestration,WINDOW_U_0.342_SHGC_SOUTH_0.379,N/A,1.943,No,21.75,21.75,21.75,180.00,90.00,15.82,1.37,0.00,ExternalEnvironment,ASHRAETARP,ASHRAETARP,SunExposed,WindExposed,0.50,0.50,0.50,0.50,4
HeatTransfer Surface,PERIMETER_BOT_ZN_1_WALL_SOUTH_DOOR1,Door,PERIMETER_BOT_ZN_1_WALL_SOUTH,CTF - ConductionTransferFunction,SWINGING DOOR_CON,2.101,2.101,,1.95,1.95,1.95,180.00,90.00,0.91,2.13,0.00,ExternalEnvironment,ASHRAETARP,ASHRAETARP,SunExposed,WindExposed,0.50,0.50,0.50,0.50,4
HeatTransfer Surface,PERIMETER_BOT_ZN_1_WALL_SOUTH_DOOR2,Door,PERIMETER_BOT_ZN_1_WALL_SOUTH,CTF - ConductionTransferFunction,SWINGING DOOR_CON,2.101,2.101,,1.95,1.95,1.95,180.00,90.00,0.91,2.13,0.00,ExternalEnvironment,ASHRAETARP,ASHRAETARP,SunExposed,WindExposed,0.50,0.50,0.50,0.50,4
HeatTransfer Surface,PERIMETER_BOT_ZN_1_WALL_EAST,Wall,,CTF - ConductionTransferFunction,INT_WALL,6.299,3.242,,17.74,17.74,17.74,45.00,90.00,6.47,2.74,0.00,iz-PERIMETER_BOT_ZN_1_WALL_EAST,Other/Same Surface Int Conv,ASHRAETARP,NoSun,NoWind,0.50,0.50,0.50,0.50,4
HeatTransfer Surface,iz-PERIMETER_BOT_ZN_4_WALL_SOUTH,Wall,,CTF - ConductionTransferFunction,INT_WALL,6.299,3.242,,17.74,17.74,17.74,315.00,90.00,6.47,2.74,0.00,PERIMETER_BOT_ZN_4_WALL_SOUTH,Other/Same Surface Int Conv,ASHRAETARP,NoSun,NoWind,0.50,0.50,0.50,0.50,4
HeatTransfer Surface,iz-CORE_BOT_ZN_5_WALL_SOUTH,Wall,,CTF - ConductionTransferFunction,INT_WALL,6.299,3.242,,111.82,111.82,111.82,0.00,90.00,40.76,2.74,0.00,CORE_BOT_ZN_5_WALL_SOUTH,Other/Same Surface Int Conv,ASHRAETARP,NoSun,NoWind,0.50,0.50,0.50,0.50,4
HeatTransfer Surface,PERIMETER_BOT_ZN_1_FLOOR,Floor,,CTF - ConductionTransferFunction,PERIMETER_BOT_ZN_1_FLOOR_FFACTOR,0.220,0.209,,207.34,207.34,207.34,180.00,180.00,40.76,6.47,0.00,FCGround,N/A-FCGround,ASHRAETARP,NoSun,NoWind,1.00,0.00,1.00,0.00,4
HeatTransfer Surface,PERIMETER_BOT_ZN_1_CEILING,Roof,,CTF - ConductionTransferFunction,DROPCEILING,4.488,2.432,,207.34,207.34,207.34,0.00,0.00,40.76,6.47,0.00,iz-PERIMETER_BOT_ZN_1_CEILING,Other/Same Surface Int Conv,ASHRAETARP,NoSun,NoWind,0.00,1.00,0.00,1.00,4
HeatTransfer Surface,PERIMETER_BOT_ZN_1_INTERNALMASS_1,Internal Mass,,CTF - ConductionTransferFunction,INTERIORFURNISHINGS,0.800,0.800,,414.67,414.67,414.67,0.00,90.00,414.67,1.00,0.00,PERIMETER_BOT_ZN_1_INTERNALMASS_1,Other/Same Surface Int Conv,ASHRAETARP,NoSun,NoWind,0.00,0.50,1.00,0.00,0
Zone Surfaces,PERIMETER_BOT_ZN_4,10
HeatTransfer Surface,PERIMETER_BOT_ZN_4_WALL_WEST,Wall,,CTF - ConductionTransferFunction,NONRES_EXT_WALL_GRD,0.496,0.462,,45.82,91.28,45.82,270.00,90.00,33.27,2.74,0.00,ExternalEnvironment,ASHRAETARP,ASHRAETARP,SunExposed,WindExposed,0.50,0.50,0.50,0.50,4
HeatTransfer Surface,PERIMETER_BOT_ZN_4_WALL_WEST_WINDOW1,Window,PERIMETER_BOT_ZN_4_WALL_WEST,Window5 Detailed Fenestration,WINDOW_U_0.342_SHGC_WEST_0.379,N/A,1.943,No,41.85,41.85,41.85,270.00,90.00,30.84,1.36,0.00,ExternalEnvironment,ASHRAETARP,ASHRAETARP,SunExposed,WindExposed,0.50,0.50,0.50,0.50,4
HeatTransfer Surface,PERIMETER_BOT_ZN_4_WALL_WEST_WINDOW2,Window,PERIMETER_BOT_ZN_4_WALL_WEST,Window5 Detailed Fenestration,WINDOW_U_0.342_SHGC_WEST_0.379,N/A,1.943,No,1.65,1.65,1.65,270.00,90.00,1.22,1.36,0.00,ExternalEnvironment,ASHRAETARP,ASHRAETARP,SunExposed,WindExposed,0.50,0.50,0.50,0.50,4
HeatTransfer Surface,PERIMETER_BOT_ZN_4_WALL_WEST_DOOR,Door,PERIMETER_BOT_ZN_4_WALL_WEST,CTF - ConductionTransferFunction,SWINGING DOOR_CON,2.101,2.101,,1.95,1.95,1.95,270.00,90.00,0.91,2.13,0.00,ExternalEnvironment,ASHRAETARP,ASHRAETARP,SunExposed,WindExposed,0.50,0.50,0.50,0.50,4
HeatTransfer Surface,PERIMETER_BOT_ZN_4_WALL_SOUTH,Wall,,CTF - ConductionTransferFunction,INT_WALL,6.299,3.242,,17.74,17.74,17.74,135.00,90.00,6.47,2.74,0.00,iz-PERIMETER_BOT_ZN_4_WALL_SOUTH,Other/Same Surface Int Conv,ASHRAETARP,NoSun,NoWind,0.50,0.50,0.50,0.50,4
HeatTransfer Surface,iz-PERIMETER_BOT_ZN_3_WALL_WEST,Wall,,CTF - ConductionTransferFunction,INT_WALL,6.299,3.242,,17.74,17.74,17.74,45.00,90.00,6.47,2.74,0.00,PERIMETER_BOT_ZN_3_WALL_WEST,Other/Same Surface Int Conv,ASHRAETARP,NoSun,NoWind,0.50,0.50,0.50,0.50,4
HeatTransfer Surface,iz-CORE_BOT_ZN_5_WALL_WEST,Wall,,CTF - ConductionTransferFunction,INT_WALL,6.299,3.242,,66.19,66.19,66.19,90.00,90.00,24.13,2.74,0.00,CORE_BOT_ZN_5_WALL_WEST,Other/Same Surface Int Conv,ASHRAETARP,NoSun,NoWind,0.50,0.50,0.50,0.50,4
HeatTransfer Surface,PERIMETER_BOT_ZN_4_FLOOR,Floor,,CTF - ConductionTransferFunction,PERIMETER_BOT_ZN_4_FLOOR_FFACTOR,0.232,0.220,,131.25,131.25,131.25,270.00,180.00,24.13,6.47,0.00,FCGround,N/A-FCGround,ASHRAETARP,NoSun,NoWind,1.00,0.00,1.00,0.00,4
HeatTransfer Surface,PERIMETER_BOT_ZN_4_CEILING,Roof,,CTF - ConductionTransferFunction,DROPCEILING,4.488,2.432,,131.25,131.25,131.25,90.00,0.00,24.13,6.47,0.00,iz-PERIMETER_BOT_ZN_4_CEILING,Other/Same Surface Int Conv,ASHRAETARP,NoSun,NoWind,0.00,1.00,0.00,1.00,4
HeatTransfer Surface,PERIMETER_BOT_ZN_4_INTERNALMASS_1,Internal Mass,,CTF - ConductionTransferFunction,INTERIORFURNISHINGS,0.800,0.800,,262.51,262.51,262.51,0.00,90.00,262.51,1.00,0.00,PERIMETER_BOT_ZN_4_INTERNALMASS_1,Other/Same Surface Int Conv,ASHRAETARP,NoSun,NoWind,0.00,0.50,1.00,0.00,0
Zone Surfaces,PERIMETER_MID_ZN_3,8
HeatTransfer Surface,PERIMETER_MID_ZN_3_WALL_NORTH,Wall,,CTF - ConductionTransferFunction,NONRES_EXT_WALL_MID,0.491,0.457,,71.65,136.92,71.65,0.00,90.00,49.91,2.74,0.00,ExternalEnvironment,ASHRAETARP,ASHRAETARP,SunExposed,WindExposed,0.50,0.50,0.50,0.50,4
HeatTransfer Surface,PERIMETER_MID_ZN_3_WALL_NORTH_WINDOW,Window,PERIMETER_MID_ZN_3_WALL_NORTH,Window5 Detailed Fenestration,WINDOW_U_0.342_SHGC_NORTH_0.379,N/A,1.943,No,65.26,65.26,65.26,0.00,90.00,49.91,1.31,0.00,ExternalEnvironment,ASHRAETARP,ASHRAETARP,SunExposed,WindExposed,0.50,0.50,0.50,0.50,4
HeatTransfer Surface,PERIMETER_MID_ZN_3_WALL_WEST,Wall,,CTF - ConductionTransferFunction,INT_WALL,6.299,3.242,,17.74,17.74,17.74,225.00,90.00,6.47,2.74,0.00,iz-PERIMETER_MID_ZN_3_WALL_WEST,Other/Same Surface Int Conv,ASHRAETARP,NoSun,NoWind,0.50,0.50,0.50,0.50,4
HeatTransfer Surface,iz-PERIMETER_MID_ZN_2_WALL_NORTH,Wall,,CTF - ConductionTransferFunction,INT_WALL,6.299,3.242,,17.74,17.74,17.74,135.00,90.00,6.47,2.74,0.00,PERIMETER_MID_ZN_2_WALL_NORTH,Other/Same Surface Int Conv,ASHRAETARP,NoSun,NoWind,0.50,0.50,0.50,0.50,4
HeatTransfer Surface,iz-CORE_MID_ZN_5_WALL_NORTH,Wall,,CTF - ConductionTransferFunction,INT_WALL,6.299,3.242,,111.82,111.82,111.82,180.00,90.00,40.76,2.74,0.00,CORE_MID_ZN_5_WALL_NORTH,Other/Same Surface Int Conv,ASHRAETARP,NoSun,NoWind,0.50,0.50,0.50,0.50,4
HeatTransfer Surface,PERIMETER_MID_ZN_3_FLOOR,Floor,,CTF - ConductionTransferFunction,INT_SLAB_FLOOR,3.839,1.986,,207.34,207.34,207.34,0.00,180.00,40.76,6.47,0.00,iz-PERIMETER_MID_ZN_3_FLOOR,Other/Same Surface Int Conv,ASHRAETARP,NoSun,NoWind,1.00,0.00,1.00,0.00,4
HeatTransfer Surface,PERIMETER_MID_ZN_3_CEILING,Roof,,CTF - ConductionTransferFunction,DROPCEILING,4.488,2.432,,207.34,207.34,207.34,180.00,0.00,40.76,6.47,0.00,iz-PERIMETER_MID_ZN_3_CEILING,Other/Same Surface Int Conv,ASHRAETARP,NoSun,NoWind,0.00,1.00,0.00,1.00,4
HeatTransfer Surface,PERIMETER_MID_ZN_3_INTERNALMASS_1,Internal Mass,,CTF - ConductionTransferFunction,INTERIORFURNISHINGS,0.800,0.800,,414.68,414.68,414.68,0.00,90.00,414.68,1.00,0.00,PERIMETER_MID_ZN_3_INTERNALMASS_1,Other/Same Surface Int Conv,ASHRAETARP,NoSun,NoWind,0.00,0.50,1.00,0.00,0
Zone Surfaces,PERIMETER_MID_ZN_2,8
HeatTransfer Surface,PERIMETER_MID_ZN_2_WALL_EAST,Wall,,CTF - ConductionTransferFunction,NONRES_EXT_WALL_MID,0.491,0.457,,47.77,91.28,47.77,90.00,90.00,33.27,2.74,0.00,ExternalEnvironment,ASHRAETARP,ASHRAETARP,SunExposed,WindExposed,0.50,0.50,0.50,0.50,4
HeatTransfer Surface,PERIMETER_MID_ZN_2_WALL_EAST_WINDOW,Window,PERIMETER_MID_ZN_2_WALL_EAST,Window5 Detailed Fenestration,WINDOW_U_0.342_SHGC_EAST_0.379,N/A,1.943,No,43.51,43.51,43.51,90.00,90.00,33.27,1.31,0.00,ExternalEnvironment,ASHRAETARP,ASHRAETARP,SunExposed,WindExposed,0.50,0.50,0.50,0.50,4
HeatTransfer Surface,PERIMETER_MID_ZN_2_WALL_NORTH,Wall,,CTF - ConductionTransferFunction,INT_WALL,6.299,3.242,,17.74,17.74,17.74,315.00,90.00,6.47,2.74,0.00,iz-PERIMETER_MID_ZN_2_WALL_NORTH,Other/Same Surface Int Conv,ASHRAETARP,NoSun,NoWind,0.50,0.50,0.50,0.50,4
HeatTransfer Surface,iz-PERIMETER_MID_ZN_1_WALL_EAST,Wall,,CTF - ConductionTransferFunction,INT_WALL,6.299,3.242,,17.74,17.74,17.74,225.00,90.00,6.47,2.74,0.00,PERIMETER_MID_ZN_1_WALL_EAST,Other/Same Surface Int Conv,ASHRAETARP,NoSun,NoWind,0.50,0.50,0.50,0.50,4
HeatTransfer Surface,iz-CORE_MID_ZN_5_WALL_EAST,Wall,,CTF - ConductionTransferFunction,INT_WALL,6.299,3.242,,66.19,66.19,66.19,270.00,90.00,24.13,2.74,0.00,CORE_MID_ZN_5_WALL_EAST,Other/Same Surface Int Conv,ASHRAETARP,NoSun,NoWind,0.50,0.50,0.50,0.50,4
HeatTransfer Surface,PERIMETER_MID_ZN_2_FLOOR,Floor,,CTF - ConductionTransferFunction,INT_SLAB_FLOOR,3.839,1.986,,131.26,131.26,131.26,90.00,180.00,24.13,6.47,0.00,iz-PERIMETER_MID_ZN_2_FLOOR,Other/Same Surface Int Conv,ASHRAETARP,NoSun,NoWind,1.00,0.00,1.00,0.00,4
HeatTransfer Surface,PERIMETER_MID_ZN_2_CEILING,Roof,,CTF - ConductionTransferFunction,DROPCEILING,4.488,2.432,,131.26,131.26,131.26,270.00,0.00,24.13,6.47,0.00,iz-PERIMETER_MID_ZN_2_CEILING,Other/Same Surface Int Conv,ASHRAETARP,NoSun,NoWind,0.00,1.00,0.00,1.00,4
HeatTransfer Surface,PERIMETER_MID_ZN_2_INTERNALMASS_1,Internal Mass,,CTF - ConductionTransferFunction,INTERIORFURNISHINGS,0.800,0.800,,262.51,262.51,262.51,0.00,90.00,262.51,1.00,0.00,PERIMETER_MID_ZN_2_INTERNALMASS_1,Other/Same Surface Int Conv,ASHRAETARP,NoSun,NoWind,0.00,0.50,1.00,0.00,0
Zone Surfaces,PERIMETER_MID_ZN_1,8
HeatTransfer Surface,PERIMETER_MID_ZN_1_WALL_SOUTH,Wall,,CTF - ConductionTransferFunction,NONRES_EXT_WALL_MID,0.491,0.457,,71.65,136.92,71.65,180.00,90.00,49.91,2.74,0.00,ExternalEnvironment,ASHRAETARP,ASHRAETARP,SunExposed,WindExposed,0.50,0.50,0.50,0.50,4
HeatTransfer Surface,PERIMETER_MID_ZN_1_WALL_SOUTH_WINDOW,Window,PERIMETER_MID_ZN_1_WALL_SOUTH,Window5 Detailed Fenestration,WINDOW_U_0.342_SHGC_SOUTH_0.379,N/A,1.943,No,65.26,65.26,65.26,180.00,90.00,49.91,1.31,0.00,ExternalEnvironment,ASHRAETARP,ASHRAETARP,SunExposed,WindExposed,0.50,0.50,0.50,0.50,4
HeatTransfer Surface,PERIMETER_MID_ZN_1_WALL_EAST,Wall,,CTF - ConductionTransferFunction,INT_WALL,6.299,3.242,,17.74,17.74,17.74,45.00,90.00,6.47,2.74,0.00,iz-PERIMETER_MID_ZN_1_WALL_EAST,Other/Same Surface Int Conv,ASHRAETARP,NoSun,NoWind,0.50,0.50,0.50,0.50,4
HeatTransfer Surface,iz-PERIMETER_MID_ZN_4_WALL_SOUTH,Wall,,CTF - ConductionTransferFunction,INT_WALL,6.299,3.242,,17.74,17.74,17.74,315.00,90.00,6.47,2.74,0.00,PERIMETER_MID_ZN_4_WALL_SOUTH,Other/Same Surface Int Conv,ASHRAETARP,NoSun,NoWind,0.50,0.50,0.50,0.50,4
HeatTransfer Surface,iz-CORE_MID_ZN_5_WALL_SOUTH,Wall,,CTF - ConductionTransferFunction,INT_WALL,6.299,3.242,,111.82,111.82,111.82,0.00,90.00,40.76,2.74,0.00,CORE_MID_ZN_5_WALL_SOUTH,Other/Same Surface Int Conv,ASHRAETARP,NoSun,NoWind,0.50,0.50,0.50,0.50,4
HeatTransfer Surface,PERIMETER_MID_ZN_1_FLOOR,Floor,,CTF - ConductionTransferFunction,INT_SLAB_FLOOR,3.839,1.986,,207.34,207.34,207.34,180.00,180.00,40.76,6.47,0.00,iz-PERIMETER_MID_ZN_1_FLOOR,Other/Same Surface Int Conv,ASHRAETARP,NoSun,NoWind,1.00,0.00,1.00,0.00,4
HeatTransfer Surface,PERIMETER_MID_ZN_1_CEILING,Roof,,CTF - ConductionTransferFunction,DROPCEILING,4.488,2.432,,207.34,207.34,207.34,0.00,0.00,40.76,6.47,0.00,iz-PERIMETER_MID_ZN_1_CEILING,Other/Same Surface Int Conv,ASHRAETARP,NoSun,NoWind,0.00,1.00,0.00,1.00,4
HeatTransfer Surface,PERIMETER_MID_ZN_1_INTERNALMASS_1,Internal Mass,,CTF - ConductionTransferFunction,INTERIORFURNISHINGS,0.800,0.800,,414.67,414.67,414.67,0.00,90.00,414.67,1.00,0.00,PERIMETER_MID_ZN_1_INTERNALMASS_1,Other/Same Surface Int Conv,ASHRAETARP,NoSun,NoWind,0.00,0.50,1.00,0.00,0
Zone Surfaces,PERIMETER_MID_ZN_4,8
HeatTransfer Surface,PERIMETER_MID_ZN_4_WALL_WEST,Wall,,CTF - ConductionTransferFunction,NONRES_EXT_WALL_MID,0.491,0.457,,47.77,91.28,47.77,270.00,90.00,33.27,2.74,0.00,ExternalEnvironment,ASHRAETARP,ASHRAETARP,SunExposed,WindExposed,0.50,0.50,0.50,0.50,4
HeatTransfer Surface,PERIMETER_MID_ZN_4_WALL_WEST_WINDOW,Window,PERIMETER_MID_ZN_4_WALL_WEST,Window5 Detailed Fenestration,WINDOW_U_0.342_SHGC_WEST_0.379,N/A,1.943,No,43.51,43.51,43.51,270.00,90.00,33.27,1.31,0.00,ExternalEnvironment,ASHRAETARP,ASHRAETARP,SunExposed,WindExposed,0.50,0.50,0.50,0.50,4
HeatTransfer Surface,PERIMETER_MID_ZN_4_WALL_SOUTH,Wall,,CTF - ConductionTransferFunction,INT_WALL,6.299,3.242,,17.74,17.74,17.74,135.00,90.00,6.47,2.74,0.00,iz-PERIMETER_MID_ZN_4_WALL_SOUTH,Other/Same Surface Int Conv,ASHRAETARP,NoSun,NoWind,0.50,0.50,0.50,0.50,4
HeatTransfer Surface,iz-PERIMETER_MID_ZN_3_WALL_WEST,Wall,,CTF - ConductionTransferFunction,INT_WALL,6.299,3.242,,17.74,17.74,17.74,45.00,90.00,6.47,2.74,0.00,PERIMETER_MID_ZN_3_WALL_WEST,Other/Same Surface Int Conv,ASHRAETARP,NoSun,NoWind,0.50,0.50,0.50,0.50,4
HeatTransfer Surface,iz-CORE_MID_ZN_5_WALL_WEST,Wall,,CTF - ConductionTransferFunction,INT_WALL,6.299,3.242,,66.19,66.19,66.19,90.00,90.00,24.13,2.74,0.00,CORE_MID_ZN_5_WALL_WEST,Other/Same Surface Int Conv,ASHRAETARP,NoSun,NoWind,0.50,0.50,0.50,0.50,4
HeatTransfer Surface,PERIMETER_MID_ZN_4_FLOOR,Floor,,CTF - ConductionTransferFunction,INT_SLAB_FLOOR,3.839,1.986,,131.25,131.25,131.25,270.00,180.00,24.13,6.47,0.00,iz-PERIMETER_MID_ZN_4_FLOOR,Other/Same Surface Int Conv,ASHRAETARP,NoSun,NoWind,1.00,0.00,1.00,0.00,4
HeatTransfer Surface,PERIMETER_MID_ZN_4_CEILING,Roof,,CTF - ConductionTransferFunction,DROPCEILING,4.488,2.432,,131.25,131.25,131.25,90.00,0.00,24.13,6.47,0.00,iz-PERIMETER_MID_ZN_4_CEILING,Other/Same Surface Int Conv,ASHRAETARP,NoSun,NoWind,0.00,1.00,0.00,1.00,4
HeatTransfer Surface,PERIMETER_MID_ZN_4_INTERNALMASS_1,Internal Mass,,CTF - ConductionTransferFunction,INTERIORFURNISHINGS,0.800,0.800,,262.51,262.51,262.51,0.00,90.00,262.51,1.00,0.00,PERIMETER_MID_ZN_4_INTERNALMASS_1,Other/Same Surface Int Conv,ASHRAETARP,NoSun,NoWind,0.00,0.50,1.00,0.00,0
! <Environment>,Environment Name,Environment Type, Start Date, End Date, Start DayOfWeek, Duration {#days}, Source:Start DayOfWeek,  Use Daylight Saving, Use Holidays, Apply Weekend Holiday Rule,  Use Rain Values, Use Snow Values, Sky Temperature Model
! <Environment:Special Days>, Special Day Name, Special Day Type, Source, Start Date, Duration {#days}
! <Environment:Daylight Saving>, Daylight Saving Indicator, Source, Start Date, End Date
! <Environment:WarmupDays>, NumberofWarmupDays
Environment,RUNPERIOD 1,WeatherFileRunPeriod,01/01/2017,12/31/2017,Sunday,365,Use RunPeriod Specified Day,No,No,No,Yes,Yes,Clark and Allen
Environment:Daylight Saving,Yes,InputFile,03/12,11/05
Environment:Special Days,NEW YEARS DAY,Holiday,InputFile,01/01,  1
Environment:Special Days,VETERANS DAY,Holiday,InputFile,11/11,  1
Environment:Special Days,CHRISTMAS,Holiday,InputFile,12/25,  1
Environment:Special Days,INDEPENDENCE DAY,Holiday,InputFile,07/04,  1
Environment:Special Days,MLK DAY,Holiday,InputFile,01/16,  1
Environment:Special Days,PRESIDENTS DAY,Holiday,InputFile,02/20,  1
Environment:Special Days,MEMORIAL DAY,Holiday,InputFile,05/29,  1
Environment:Special Days,LABOR DAY,Holiday,InputFile,09/04,  1
Environment:Special Days,COLUMBUS DAY,Holiday,InputFile,10/09,  1
Environment:Special Days,THANKSGIVING,Holiday,InputFile,11/23,  1
Environment:WarmupDays, 17
! <Tabular Report>,Style,Unit Conversion
Tabular Report,Commaandhtml,commaandhtml
! <Warmup Convergence Information>,Zone Name,Environment Type/Name,Average Warmup Temperature Difference {deltaC},Std Dev Warmup Temperature Difference {deltaC},Max Temperature Pass/Fail Convergence,Min Temperature Pass/Fail Convergence,Average Warmup Load Difference {W},Std Dev Warmup Load Difference {W},Heating Load Pass/Fail Convergence,Cooling Load Pass/Fail Convergence
 Warmup Convergence Information,CORE_BOTTOM,RunPeriod: RUNPERIOD 1,2.2998647880E-002,1.3023669200E-002,Pass,Pass,0.4918736805,0.4862898754,Pass,Pass
 Warmup Convergence Information,TOPFLOOR_PLENUM,RunPeriod: RUNPERIOD 1,0.1137476199,7.6697276255E-002,Pass,Pass,0.4950833324,0.4809226668,Pass,Pass
 Warmup Convergence Information,MIDFLOOR_PLENUM,RunPeriod: RUNPERIOD 1,5.7329520043E-002,2.8505906848E-002,Pass,Pass,0.4952483215,0.4699022708,Pass,Pass
 Warmup Convergence Information,FIRSTFLOOR_PLENUM,RunPeriod: RUNPERIOD 1,5.4532447478E-002,2.6194236103E-002,Pass,Pass,0.4997881559,0.4671714934,Pass,Pass
 Warmup Convergence Information,CORE_MID,RunPeriod: RUNPERIOD 1,4.8675720274E-003,6.3870353154E-003,Pass,Pass,0.6939052835,1.0079983862,Pass,Pass
 Warmup Convergence Information,CORE_TOP,RunPeriod: RUNPERIOD 1,9.7130197734E-002,9.6407676026E-002,Pass,Pass,85.9454682898,755.7867329254,Pass,Pass
 Warmup Convergence Information,PERIMETER_TOP_ZN_3,RunPeriod: RUNPERIOD 1,0.4198368487,0.4062885592,Pass,Pass,75.8100872075,631.2772548046,Pass,Pass
 Warmup Convergence Information,PERIMETER_TOP_ZN_2,RunPeriod: RUNPERIOD 1,0.4503893668,0.4427777085,Pass,Pass,61.6433709325,243.9121595302,Pass,Pass
 Warmup Convergence Information,PERIMETER_TOP_ZN_1,RunPeriod: RUNPERIOD 1,0.4023199749,0.4129834481,Pass,Pass,55.5531675845,189.1408634858,Pass,Pass
 Warmup Convergence Information,PERIMETER_TOP_ZN_4,RunPeriod: RUNPERIOD 1,0.4555930406,0.4425150289,Pass,Pass,120.9625901511,779.2669094340,Pass,Pass
 Warmup Convergence Information,PERIMETER_BOT_ZN_3,RunPeriod: RUNPERIOD 1,0.3136619243,0.2992081292,Pass,Pass,29.3015622078,104.3281455481,Pass,Pass
 Warmup Convergence Information,PERIMETER_BOT_ZN_2,RunPeriod: RUNPERIOD 1,0.3382136744,0.3222399161,Pass,Pass,39.7635972576,183.6378382457,Pass,Pass
 Warmup Convergence Information,PERIMETER_BOT_ZN_1,RunPeriod: RUNPERIOD 1,0.2916022552,0.2915269014,Pass,Pass,27.4736683092,79.9842050176,Pass,Pass
 Warmup Convergence Information,PERIMETER_BOT_ZN_4,RunPeriod: RUNPERIOD 1,0.3458509199,0.3248046758,Pass,Pass,29.9553512809,77.3489427737,Pass,Pass
 Warmup Convergence Information,PERIMETER_MID_ZN_3,RunPeriod: RUNPERIOD 1,0.3245823987,0.3057742849,Pass,Pass,31.9165946003,118.1251353750,Pass,Pass
 Warmup Convergence Information,PERIMETER_MID_ZN_2,RunPeriod: RUNPERIOD 1,0.3354976745,0.3283096096,Pass,Pass,34.9093044972,138.5989342060,Pass,Pass
 Warmup Convergence Information,PERIMETER_MID_ZN_1,RunPeriod: RUNPERIOD 1,0.2974908642,0.3066480359,Pass,Pass,22.9686409095,80.6152572308,Pass,Pass
 Warmup Convergence Information,PERIMETER_MID_ZN_4,RunPeriod: RUNPERIOD 1,0.3411207925,0.3272870496,Pass,Pass,37.2638468131,156.3364190618,Pass,Pass
! <Program Control Information:Threads/Parallel Sims>, Threading Supported,Maximum Number of Threads, Env Set Threads (OMP_NUM_THREADS), EP Env Set Threads (EP_OMP_NUM_THREADS), IDF Set Threads, Number of Threads Used (Interior Radiant Exchange), Number Nominal Surfaces, Number Parallel Sims
Program Control:Threads/Parallel Sims, No,1, N/A, N/A, N/A, N/A, N/A, N/A
End of Data
